24
metacyc 1-4-HYDROXYPHENYL-2-METHYLAMINOETHAN  431.38558792 431.38558792 431.38558792 431.38558792 431.38558792 431.38558792 431.38558792 431.38558792 431.38558792 431.38558792 431.38558792 431.38558792 431.38558792 431.38558792 431.38558792
C          0.98630        0.22237        0.18648
N          2.43843        0.17766        0.27453
C          2.88512       -0.95531        1.11359
C          4.42967       -0.97638        1.16052
O          4.85459        0.32350        1.59306
C          4.97705       -2.06437        2.06016
C          5.21996       -3.34267        1.53322
C          5.70790       -4.37059        2.34365
C          5.94903       -4.12174        3.69133
O          6.42468       -5.10064        4.51532
C          5.70655       -2.86819        4.23720
C          5.21809       -1.84278        3.42401
H          0.66226        0.97016       -0.54585
H          0.52315        0.49583        1.14127
H          0.54956       -0.73188       -0.13054
H          2.51955       -1.91898        0.73699
H          2.49883       -0.84246        2.13629
H          4.83611       -1.10624        0.14930
H          4.13001        0.86641        1.19640
H          5.01721       -3.53416        0.48093
H          5.88565       -5.34626        1.90514
H          6.51341       -5.91008        3.98856
H          5.89051       -2.68260        5.29022
H          5.01845       -0.86083        3.84737
24 24 24 24 24 24 24 24 24 24 24 24 24 24 24 24 24 24 24 24 24 24 24 24 24 24 24 24 24 24 24 24 24 24 24 24 24 24 24 24 24 24 24 24 24 24 24 24 24 24 24 24 24 24 24 24 24 24 24 24 24 24 24 24 24 24 24
C[N+]CC(O)C1(C=CC(O)=CC=1)
InChI=1S/C9H13NO2/c1-10-6-9(12)7-2-4-8(11)5-3-7/h2-5,9-12H,6H2,1H3/p+1/t9-/m0/s1
