12
metacyc 1-AMINO-PROPAN-2-OL  241.413210128 241.413210128 241.413210128 241.413210128 241.413210128 241.413210128 241.413210128 241.413210128 241.413210128 241.413210128 241.413210128 241.413210128 241.413210128 241.413210128 241.413210128
C          0.87548        0.01067        0.01921
C          2.39816       -0.04985        0.01599
O          2.85792       -0.25635        1.35330
C          2.96867       -1.12444       -0.91968
N          2.52048       -2.46330       -0.54378
H          0.53196        0.81830        0.67504
H          0.43529       -0.91214        0.41170
H          0.48373        0.18951       -0.98660
H          2.78475        0.92502       -0.30145
H          2.61875       -1.17012        1.59714
H          4.06241       -1.11047       -0.87008
H          2.67218       -0.92393       -1.95422
12 12 12 12 12 12 12 12 12 12 12 12 12 12 12 12 12 12 12 12 12 12 12 12 12 12 12 12 12 12 12
CC(O)C[N+]
InChI=1S/C3H9NO/c1-3(5)2-4/h3,5H,2,4H2,1H3/p+1/t3-/m1/s1
