23
metacyc 1-DEOXYNOJIRIMYCIN  6.8769169584 6.8769169584 6.8769169584 6.8769169584 6.8769169584 6.8769169584 6.8769169584 6.8769169584 6.8769169584 6.8769169584 6.8769169584 6.8769169584 6.8769169584 6.8769169584 6.8769169584
C          0.82796        1.13151        0.19821
N          1.41825       -0.13550       -0.26360
C          0.64489       -1.30679        0.23334
C          1.34574       -2.59819       -0.23032
O          2.67551       -2.57911        0.29232
C         -0.80512       -1.23685       -0.29518
O         -0.75743       -1.27944       -1.72881
C         -1.48549        0.07040        0.15758
O         -1.68453        0.09490        1.58968
C         -0.63586        1.29242       -0.25546
O         -1.18867        2.47484        0.34040
H          1.39841        1.98307       -0.19518
H          0.89921        1.24083        1.28846
H          0.64715       -1.32024        1.33120
H          1.42148       -2.66517       -1.32070
H          0.83379       -3.48980        0.14298
H          2.88163       -1.61785        0.22528
H         -1.37582       -2.10188        0.05881
H          0.06976       -0.77804       -1.91654
H         -2.47980        0.16086       -0.29350
H         -0.78690        0.00022        1.96316
H         -0.67248        1.42085       -1.34365
H         -1.45046        2.18478        1.23430
23 23 23 23 23 23 23 23 23 23 23 23 23 23 23 23 23 23 23 23 23 23 23 23 23 23 23 23 23 23 23 23 23 23 23 23 23 23 23 23 23 23 23 23 23 23 23 23 23 23 23 23 23 23 23 23 23 23 23 23 23 23 23 23
C1([N+]C(CO)C(O)C(O)C(O)1)
InChI=1S/C6H13NO4/c8-2-3-5(10)6(11)4(9)1-7-3/h3-11H,1-2H2/p+1/t3-,4+,5-,6-/m1/s1
