20
metacyc 1-INDANOL  442.1283008 442.1283008 442.1283008 442.1283008 442.1283008 442.1283008 442.1283008 442.1283008 442.1283008 442.1283008 442.1283008 442.1283008 442.1283008 442.1283008 442.1283008
C          1.95390        1.08455       -0.00300
C          2.22341       -0.29142        0.01478
C          1.17815       -1.21695        0.01955
C         -0.12697       -0.74536        0.00516
C         -0.39342        0.62237       -0.01415
C         -1.85887        0.90210       -0.01490
C         -2.49871       -0.49629       -0.04264
C         -1.38440       -1.55499        0.02019
O         -1.50011       -2.30590        1.21905
C          0.63760        1.54956       -0.01743
H          2.77785        1.79427       -0.00517
H          3.25366       -0.63854        0.02566
H          1.38456       -2.28309        0.03525
H         -2.14873        1.48086       -0.89772
H         -2.14985        1.44583        0.88930
H         -3.06685       -0.61202       -0.97416
H         -3.22041       -0.60603        0.77583
H         -1.43779       -2.23309       -0.83728
H         -0.95888       -1.85915        1.89342
H          0.43133        2.61556       -0.02951
20 20 20 20 20 20 20 20 20 20 20 20 20 20 20 20 20 20 20 20 20 20 20 20 20 20 20 20 20 20 20 20 20 20 20 20 20 20 20 20 20 20 20 20 20 20 20 20 20 20 20 20 20 20 20
C2(C=CC1(=C(CCC1O)C=2))
InChI=1S/C9H10O/c10-9-6-5-7-3-1-2-4-8(7)9/h1-4,9-10H,5-6H2
