23
metacyc 17-DIAMINOHEPTANE  849.41132912 849.41132912 849.41132912 849.41132912 849.41132912 849.41132912 849.41132912 849.41132912 849.41132912 849.41132912 849.41132912 849.41132912 849.41132912 849.41132912 849.41132912
C          0.96294        0.02030        0.02298
C          0.43730       -0.88084        1.13685
C         -1.09268       -0.89790        1.15804
C         -1.62508       -1.79894        2.27371
C         -3.15461       -1.81423        2.29302
C         -3.68960       -2.71461        3.40866
C         -5.21563       -2.72609        3.42343
N         -5.69644       -3.58965        4.49347
N          2.41970        0.01708        0.02603
H          0.60739        1.04654        0.16110
H          0.60661       -0.32848       -0.95176
H          0.81198       -0.53033        2.10699
H          0.81183       -1.90283        0.99665
H         -1.46923       -1.25058        0.19014
H         -1.46922        0.12257        1.29924
H         -1.24887       -1.44646        3.24177
H         -1.24914       -2.81963        2.13267
H         -3.53047       -2.16678        1.32478
H         -3.53022       -0.79329        2.43346
H         -3.31079       -2.36131        4.37617
H         -3.31117       -3.73502        3.26731
H         -5.60485       -3.09087        2.46732
H         -5.60447       -1.71439        3.57838
23 23 23 23 23 23 23 23 23 23 23 23 23 23 23 23 23 23 23 23 23 23 23 23 23 23 23 23 23 23 23 23 23 23 23 23 23 23 23 23 23 23 23 23 23 23 23 23 23 23 23 23 23 23 23 23 23 23 23 23 23 23 23 23
C(CCCCCC[N+])[N+]
InChI=1S/C7H18N2/c8-6-4-2-1-3-5-7-9/h1-9H2/p+2
