26
metacyc 18-DIAMINOOCTANE  942.1380576 942.1380576 942.1380576 942.1380576 942.1380576 942.1380576 942.1380576 942.1380576 942.1380576 942.1380576 942.1380576 942.1380576 942.1380576 942.1380576 942.1380576
C          0.97817       -0.05279       -0.04493
C          0.45070       -0.10671        1.38604
C         -1.07929       -0.10641        1.41160
C         -1.61229       -0.15934        2.84436
C         -3.14167       -0.16055        2.86908
C         -3.67479       -0.21452        4.30175
C         -5.20479       -0.21634        4.32709
C         -5.73239       -0.27058        5.75802
N         -7.18916       -0.27110        5.75105
N          2.43493       -0.05520       -0.03830
H          0.62434        0.85220       -0.54940
H          0.62169       -0.91550       -0.61707
H          0.82547        0.75470        1.95344
H          0.82384       -1.00940        1.88640
H         -1.45603       -0.96834        0.84752
H         -1.45474        0.79561        0.91317
H         -1.23645        0.70307        3.40826
H         -1.23615       -1.06080        3.34324
H         -3.51748       -1.02257        2.30456
H         -3.51782        0.74124        2.37081
H         -3.29921        0.64773        4.86611
H         -3.29825       -1.11620        4.79999
H         -5.57819       -1.07854        3.75995
H         -5.57920        0.68558        3.82634
H         -5.37784        0.59326        6.32967
H         -5.37687       -1.17451        6.26310
26 26 26 26 26 26 26 26 26 26 26 26 26 26 26 26 26 26 26 26 26 26 26 26 26 26 26 26 26 26 26 26 26 26 26 26 26 26 26 26 26 26 26 26 26 26 26 26 26 26 26 26 26 26 26 26 26 26 26 26 26 26 26 26 26 26 26 26 26 26 26 26 26
C(CCCCCCC[N+])[N+]
InChI=1S/C8H20N2/c9-7-5-3-1-2-4-6-8-10/h1-10H2/p+2
