12
metacyc 2-HYDROXYPYRIDINE  162.11161132 162.11161132 162.11161132 162.11161132 162.11161132 162.11161132 162.11161132 162.11161132 162.11161132 162.11161132 162.11161132 162.11161132 162.11161132 162.11161132 162.11161132
C         -0.60066       -1.24801       -0.00904
C         -1.33028       -0.06203        0.00561
C         -0.63479        1.13920       -0.00184
N          0.71337        1.22909       -0.02289
C          1.37151        0.05935       -0.03647
C          0.78812       -1.19010       -0.03053
O          2.72045        0.18866       -0.05824
H         -1.10921       -2.20764       -0.00387
H         -2.41450       -0.07302        0.02237
H         -1.16263        2.08871        0.00927
H          1.39562       -2.08643       -0.04251
H          2.78816        1.16047       -0.05795
12 12 12 12 12 12 12 12 12 12 12 12 12 12 12 12 12 12 12 12 12 12 12 12 12 12 12 12 12 12 12
C1(=CC=NC(=C1)O)
InChI=1S/C5H5NO/c7-5-3-1-2-4-6-5/h1-4H,(H,6,7)
