13
metacyc 2-HYDROXY-2-METHYLPROPANENITRILE  166.179450928 166.179450928 166.179450928 166.179450928 166.179450928 166.179450928 166.179450928 166.179450928 166.179450928 166.179450928 166.179450928 166.179450928 166.179450928 166.179450928 166.179450928
C          1.05972        0.03986       -0.02129
C          2.58884        0.05582        0.00027
O          3.05769       -0.60422       -1.18379
C          3.11365        1.49224       -0.01768
C          3.08329       -0.64634        1.20766
N          3.45438       -1.17360        2.17434
H          0.67399        0.53982       -0.91721
H          0.63472        0.53278        0.86012
H          0.67996       -0.98857       -0.05153
H          2.71593       -0.11904       -1.95358
H          2.77295        2.02403       -0.91351
H          4.20992        1.50752       -0.04536
H          2.78854        2.05577        0.86392
13 13 13 13 13 13 13 13 13 13 13 13 13 13 13 13 13 13 13 13 13 13 13 13 13 13 13 13 13 13 13 13 13 13
CC(O)(C)C#N
InChI=1S/C4H7NO/c1-4(2,6)3-5/h6H,1-2H3
