18
metacyc 2-METHYLPROPANAL-O-METHYLOXIME  404.64434688 404.64434688 404.64434688 404.64434688 404.64434688 404.64434688 404.64434688 404.64434688 404.64434688 404.64434688 404.64434688 404.64434688 404.64434688 404.64434688 404.64434688
C          1.02764       -0.14929       -0.02463
C          2.54876       -0.09858        0.03541
C          3.03774        0.20732        1.44519
C          3.10874       -1.42908       -0.40470
N          3.89781       -1.50587       -1.42550
O          4.26808       -2.84621       -1.60750
C          5.14161       -2.92036       -2.72839
H          0.59430        0.81404        0.26343
H          0.62519       -0.91831        0.64419
H          0.68662       -0.38541       -1.03861
H          2.90998        0.67964       -0.64725
H          2.70586       -0.55497        2.15899
H          2.66459        1.17891        1.78506
H          4.13248        0.23331        1.47897
H          2.82050       -2.32199        0.17956
H          5.43205       -3.96424       -2.87275
H          6.04210       -2.32539       -2.54702
H          4.63143       -2.56792       -3.63017
18 18 18 18 18 18 18 18 18 18 18 18 18 18 18 18 18 18 18 18 18 18 18 18 18 18 18 18 18 18 18 18 18 18 18 18 18 18 18 18 18 18 18 18 18 18 18 18 18
CC(C)C=NOC
InChI=1S/C5H11NO/c1-5(2)4-6-7-3/h4-5H,1-3H3/b6-4+
