17
metacyc 2-NITROTOLUENE  151.74464256 151.74464256 151.74464256 151.74464256 151.74464256 151.74464256 151.74464256 151.74464256 151.74464256 151.74464256 151.74464256 151.74464256 151.74464256 151.74464256 151.74464256
C          1.03380       -0.03354       -0.01301
C          2.53233        0.03429       -0.09957
C          3.27612        1.22447       -0.17966
C          4.67653        1.21795       -0.27712
C          5.35624        0.00248       -0.28358
C          4.64176       -1.19127       -0.19560
C          3.24618       -1.17610       -0.10436
N          2.62537        2.52538       -0.16109
O          1.95659        2.81259        0.83980
O          2.81361        3.26161       -1.13986
H          0.54669        0.93794       -0.12165
H          0.73553       -0.45649        0.95188
H          0.64548       -0.67186       -0.81434
H          5.23509        2.14894       -0.34373
H          6.44120       -0.01621       -0.35576
H          5.17250       -2.14144       -0.19986
H          2.71369       -2.12430       -0.04052
17 17 17 17 17 17 17 17 17 17 17 17 17 17 17 17 17 17 17 17 17 17 17 17 17 17 17 17 17 17 17 17 17 17 17 17 17 17 17 17 17 17 17 17 17 17
CC1(=C(C=CC=C1)[N+](=O)[O-])
InChI=1S/C7H7NO2/c1-6-4-2-3-5-7(6)8(9)10/h2-5H,1H3
