11
metacyc 2-PYRAZOLINE  363.15751832 363.15751832 363.15751832 363.15751832 363.15751832 363.15751832 363.15751832 363.15751832 363.15751832 363.15751832 363.15751832 363.15751832 363.15751832 363.15751832 363.15751832
C         -1.26742        0.01948       -0.04057
C         -0.39286       -1.20896        0.10241
C          0.94757       -0.56196       -0.00504
N          0.95190        0.72622        0.09883
N         -0.33664        1.07965        0.32736
H         -2.14721       -0.01029        0.60744
H         -1.59164        0.14242       -1.08003
H         -0.53977       -1.93764       -0.69747
H         -0.47806       -1.69112        1.08029
H          1.85543       -1.16544       -0.14279
H         -0.57363        1.98636       -0.07748
11 11 11 11 11 11 11 11 11 11 11 11 11 11 11 11 11 11 11 11 11 11 11 11 11 11 11 11
C1(CC=NN1)
InChI=1S/C3H6N2/c1-2-4-5-3-1/h2,5H,1,3H2
