16
metacyc 24DINH2-PENTANOATE  191.386636736 191.386636736 191.386636736 191.386636736 191.386636736 191.386636736 191.386636736 191.386636736 191.386636736 191.386636736 191.386636736 191.386636736 191.386636736 191.386636736 191.386636736
C          1.05049       -0.15925       -0.30825
C          2.54652        0.02868       -0.07329
C          2.91319        1.42394        0.45109
C          2.49833        2.57639       -0.46924
C          2.85931        3.96501        0.11201
O          3.86952        4.01688        0.87279
O          2.05956        4.89754       -0.20384
N          3.16519        2.46983       -1.77260
N          2.97834       -0.97445        0.90538
H          0.71036        0.43036       -1.16555
H          0.46403        0.14125        0.56706
H          0.81326       -1.20639       -0.52983
H          3.08075       -0.17352       -1.00790
H          3.99846        1.45839        0.62309
H          2.44934        1.58077        1.43518
H          1.41434        2.55559       -0.62666
16 16 16 16 16 16 16 16 16 16 16 16 16 16 16 16 16 16 16 16 16 16 16 16 16 16 16 16 16 16 16 16 16 16 16 16 16 16 16 16 16 16 16
CC(CC(C([O-])=O)[N+])[N+]
InChI=1S/C5H12N2O2/c1-3(6)2-4(7)5(8)9/h3-4H,2,6-7H2,1H3,(H,8,9)/p+1/t3-,4+/m1/s1
