12
metacyc 3-CYANOPYRIDINE  332.52126616 332.52126616 332.52126616 332.52126616 332.52126616 332.52126616 332.52126616 332.52126616 332.52126616 332.52126616 332.52126616 332.52126616 332.52126616 332.52126616 332.52126616
C          0.87166       -0.00534        0.05815
C         -0.55234        0.00778       -0.04250
C         -1.26829       -1.18001       -0.07041
N         -2.61837       -1.24372       -0.16668
C         -3.28044       -0.06780       -0.23797
C         -2.65435        1.16873       -0.21657
C         -1.26479        1.20504       -0.11682
N          2.02925       -0.01361        0.13913
H         -0.77154       -2.14603       -0.01550
H         -4.36155       -0.14822       -0.31535
H         -3.23564        2.08271       -0.27660
H         -0.74890        2.16237       -0.09827
12 12 12 12 12 12 12 12 12 12 12 12 12 12 12 12 12 12 12 12 12 12 12 12 12 12 12 12 12 12 12
C(C1(=CN=CC=C1))#N
InChI=1S/C6H4N2/c7-4-6-2-1-3-8-5-6/h1-3,5H
