24
metacyc 3-DE-H-CARNITINE  59.892148328 59.892148328 59.892148328 59.892148328 59.892148328 59.892148328 59.892148328 59.892148328 59.892148328 59.892148328 59.892148328 59.892148328 59.892148328 59.892148328 59.892148328
C          0.89464        0.19243        0.06107
C          0.36155        1.29937        0.99376
O          1.12550        2.04250        1.62383
C         -1.13032        1.46710        1.13838
C         -1.78564        0.44566        0.24479
O         -1.90420       -0.69702        0.76054
O         -1.89336        0.80001       -0.95863
N          2.46422        0.06039       -0.04886
C          2.75514       -1.08117       -1.01217
C          3.05295        1.34276       -0.59937
C          3.05457       -0.26757        1.30857
H          0.56089        0.37825       -0.96365
H          0.55937       -0.78590        0.41776
H         -1.40794        2.48140        0.83781
H         -1.40982        1.30539        2.18375
H          2.31770       -0.83986       -1.98530
H          2.31810       -1.99990       -0.61101
H          3.84086       -1.18777       -1.10266
H          2.58126        1.56001       -1.56108
H          4.13047        1.18850       -0.73873
H          2.89828        2.16171        0.10172
H          2.57757       -1.17992        1.68292
H          2.89357        0.55997        1.99875
H          4.12842       -0.43065        1.18279
24 24 24 24 24 24 24 24 24 24 24 24 24 24 24 24 24 24 24 24 24 24 24 24 24 24 24 24 24 24 24 24 24 24 24 24 24 24 24 24 24 24 24 24 24 24 24 24 24 24 24 24 24 24 24 24 24 24 24 24 24 24 24 24 24 24 24
C(C(=O)CC(=O)[O-])[N+](C)(C)C
InChI=1S/C7H13NO3/c1-8(2,3)5-6(9)4-7(10)11/h4-5H2,1-3H3
