16
metacyc 3-DEAZAADENINE  451.64936936 451.64936936 451.64936936 451.64936936 451.64936936 451.64936936 451.64936936 451.64936936 451.64936936 451.64936936 451.64936936 451.64936936 451.64936936 451.64936936 451.64936936
C         -1.12266       -0.00138       -0.00336
N         -0.30292        1.09207        0.01812
C          0.99557        0.65019       -0.00479
C          0.89027       -0.73650       -0.06223
C          2.06987       -1.51430       -0.11766
N          3.27298       -0.88857       -0.07204
C          3.31898        0.46499       -0.01619
C          2.21707        1.31037        0.01359
N          2.05958       -2.90103       -0.20047
N         -0.43915       -1.12162       -0.04692
H         -2.20153        0.08156        0.01260
H         -0.60403        2.05556        0.04615
H          4.32518        0.87809        0.00252
H          2.31400        2.38665        0.05123
H          1.18808       -3.30623        0.12104
H          2.92429       -3.29766        0.14081
16 16 16 16 16 16 16 16 16 16 16 16 16 16 16 16 16 16 16 16 16 16 16 16 16 16 16 16 16 16 16 16 16 16 16 16 16 16 16 16 16 16 16
C2(NC1(=C(C(=[N+]C=C1)N)N=2))
InChI=1S/C6H6N4/c7-6-5-4(1-2-8-6)9-3-10-5/h1-3H,(H2,7,8)(H,9,10)/p+1
