20
metacyc 3-ETHYLCATECHOL  223.09592172 223.09592172 223.09592172 223.09592172 223.09592172 223.09592172 223.09592172 223.09592172 223.09592172 223.09592172 223.09592172 223.09592172 223.09592172 223.09592172 223.09592172
C          0.94183        0.27718       -0.11049
C          2.44940        0.09715       -0.01288
C          2.86641       -0.32127        1.37304
C          3.19981        0.64782        2.33199
C          3.55122        0.27642        3.63506
C          3.57497       -1.06949        4.00242
C          3.24646       -2.03189        3.05634
O          3.25129       -3.36766        3.35612
C          2.89182       -1.66232        1.75775
O          2.56074       -2.64299        0.86227
H          0.66116        0.58679       -1.12188
H          0.58853        1.04229        0.58938
H          0.41376       -0.65473        0.11823
H          2.94969        1.03590       -0.28109
H          2.78793       -0.64100       -0.74964
H          3.18085        1.70338        2.06867
H          3.80218        1.04329        4.36374
H          3.84347       -1.33997        5.01797
H          3.53805       -3.46582        4.28017
H          2.65168       -3.47449        1.36867
20 20 20 20 20 20 20 20 20 20 20 20 20 20 20 20 20 20 20 20 20 20 20 20 20 20 20 20 20 20 20 20 20 20 20 20 20 20 20 20 20 20 20 20 20 20 20 20 20 20 20 20 20 20 20
CCC1(C=CC=C(O)C(O)=1)
InChI=1S/C8H10O2/c1-2-6-4-3-5-7(9)8(6)10/h3-5,9-10H,2H2,1H3
