16
metacyc 3-HYDROXYAMINOPHENOL  138.14666348 138.14666348 138.14666348 138.14666348 138.14666348 138.14666348 138.14666348 138.14666348 138.14666348 138.14666348 138.14666348 138.14666348 138.14666348 138.14666348 138.14666348
C         -0.70065        1.23860       -0.02897
C          0.69266        1.27413       -0.06164
C          1.40022        0.07755       -0.07399
O          2.76454        0.06115       -0.09132
C          0.73725       -1.14725       -0.06252
C         -0.66204       -1.19409       -0.05478
C         -1.37160        0.01242       -0.01376
N         -1.31097       -2.44639        0.03110
O         -2.69972       -2.50975       -0.07649
H         -1.26866        2.16562       -0.01295
H          1.20148        2.23228       -0.06817
H          3.08466        0.97785       -0.11395
H          1.32031       -2.06375       -0.04870
H         -2.45762        0.00866        0.01077
H         -0.84343       -3.14178       -0.55467
H         -2.99261       -2.30322        0.83119
16 16 16 16 16 16 16 16 16 16 16 16 16 16 16 16 16 16 16 16 16 16 16 16 16 16 16 16 16 16 16 16 16 16 16 16 16 16 16 16 16 16 16
C1(C=C(O)C=C(C=1)NO)
InChI=1S/C6H7NO2/c8-6-3-1-2-5(4-6)7-9/h1-4,7-9H
