20
metacyc 3-METHYLOXINDOLE  370.9956984 370.9956984 370.9956984 370.9956984 370.9956984 370.9956984 370.9956984 370.9956984 370.9956984 370.9956984 370.9956984 370.9956984 370.9956984 370.9956984 370.9956984
C          1.02867       -0.03458        0.02986
C          2.54544       -0.02119        0.09660
C          3.10474        1.13034        0.88909
C          2.97306        2.49391        0.69734
C          3.62187        3.34787        1.59509
C          4.38792        2.83319        2.65800
C          4.51861        1.45478        2.84182
C          3.86972        0.63458        1.94423
N          3.85078       -0.75033        1.92994
C          3.07690       -1.23574        0.88314
O          2.86773       -2.41364        0.64327
H          0.65068        0.83149       -0.52347
H          0.58101       -0.01421        1.03030
H          0.67037       -0.94025       -0.47112
H          2.99474       -0.03763       -0.90249
H          2.38682        2.89589       -0.12278
H          3.53569        4.42553        1.47085
H          4.88289        3.51845        3.34252
H          5.10736        1.05544        3.65908
H          4.31217       -1.35413        2.59292
20 20 20 20 20 20 20 20 20 20 20 20 20 20 20 20 20 20 20 20 20 20 20 20 20 20 20 20 20 20 20 20 20 20 20 20 20 20 20 20 20 20 20 20 20 20 20 20 20 20 20 20 20 20 20
CC2(C1(C=CC=CC=1NC2=O))
InChI=1S/C9H9NO/c1-6-7-4-2-3-5-8(7)10-9(6)11/h2-6H,1H3,(H,10,11)
