15
metacyc 3-OH-BENZALDEHYDE  91.19747648 91.19747648 91.19747648 91.19747648 91.19747648 91.19747648 91.19747648 91.19747648 91.19747648 91.19747648 91.19747648 91.19747648 91.19747648 91.19747648 91.19747648
C          1.15369        0.05912        0.14712
C          0.31344        0.15094        1.35654
C         -0.15434       -1.01059        1.97927
C         -0.95416       -0.91167        3.11939
C         -1.28757        0.34347        3.63200
C         -0.81438        1.49102        2.99935
C         -0.01215        1.40838        1.86674
O         -1.12336        2.73532        3.46349
O          1.45527       -1.01624       -0.35638
H          1.49856        1.01224       -0.28790
H          0.10199       -1.98983        1.57891
H         -1.31786       -1.81408        3.60520
H         -1.91137        0.40542        4.51848
H          0.34363        2.31976        1.39574
H         -1.71946        2.64622        4.22599
15 15 15 15 15 15 15 15 15 15 15 15 15 15 15 15 15 15 15 15 15 15 15 15 15 15 15 15 15 15 15 15 15 15 15 15 15 15 15 15
C(C1(C=CC=C(C=1)O))=O
InChI=1S/C7H6O2/c8-5-6-2-1-3-7(9)4-6/h1-5,9H
