19
metacyc 34-DIHYDROXYPHENYLACETALDEHYDE  25.22518956 25.22518956 25.22518956 25.22518956 25.22518956 25.22518956 25.22518956 25.22518956 25.22518956 25.22518956 25.22518956 25.22518956 25.22518956 25.22518956 25.22518956
C         -1.35113        0.01573       -0.00082
C         -0.68741        1.24822        0.02991
C          0.70082        1.27010       -0.00470
C          1.42004        0.08163       -0.04994
O          2.78590        0.11070       -0.08890
C          0.77179       -1.14605       -0.07590
C         -0.62982       -1.19105       -0.06154
C         -1.34921       -2.51233       -0.17557
C         -2.23053       -2.80700        1.00814
H         -1.72899       -2.82084        1.99060
O         -3.42446       -3.07938        0.91027
O          1.40746        2.44184       -0.01034
H         -2.44064        0.00363        0.00519
H         -1.26813        2.16420        0.06756
H          3.00975        1.06289       -0.08797
H          1.36515       -2.05479       -0.12979
H         -0.63282       -3.33757       -0.25759
H         -1.95462       -2.51392       -1.08904
H          0.77224        3.17749       -0.04548
19 19 19 19 19 19 19 19 19 19 19 19 19 19 19 19 19 19 19 19 19 19 19 19 19 19 19 19 19 19 19 19 19 19 19 19 19 19 19 19 19 19 19 19 19 19 19 19 19 19 19 19
C1(=CC(=C(O)C=C1C[CH]=O)O)
InChI=1S/C8H8O3/c9-4-3-6-1-2-7(10)8(11)5-6/h1-2,4-5,10-11H,3H2
