22
metacyc 35-DIMETHYLBENZYL-ALCOHOL  467.4090748 467.4090748 467.4090748 467.4090748 467.4090748 467.4090748 467.4090748 467.4090748 467.4090748 467.4090748 467.4090748 467.4090748 467.4090748 467.4090748 467.4090748
C          1.02023       -0.10764       -0.02878
C          2.52004       -0.07053       -0.02464
C          3.21149        1.14752       -0.02900
C          4.61461        1.18187       -0.03434
C          5.32811        2.50918       -0.09355
O          6.56222        2.48356        0.61380
C          5.32098       -0.02991       -0.06534
C          4.64657       -1.25735       -0.04976
C          5.40082       -2.55436       -0.06847
C          3.24630       -1.26773       -0.02859
H          0.59304        0.90060       -0.02521
H          0.65315       -0.63129        0.85966
H          0.65773       -0.62082       -0.92543
H          2.65061        2.08092       -0.03392
H          4.71506        3.29413        0.36216
H          5.52402        2.78271       -1.13473
H          6.38959        2.03075        1.45705
H          6.40907       -0.01300       -0.10748
H          6.48351       -2.39124       -0.06527
H          5.14868       -3.12439       -0.96862
H          5.14931       -3.14879        0.81593
H          2.71643       -2.21855       -0.02581
22 22 22 22 22 22 22 22 22 22 22 22 22 22 22 22 22 22 22 22 22 22 22 22 22 22 22 22 22 22 22 22 22 22 22 22 22 22 22 22 22 22 22 22 22 22 22 22 22 22 22 22 22 22 22 22 22 22 22 22 22
CC1(C=C(CO)C=C(C)C=1)
InChI=1S/C9H12O/c1-7-3-8(2)5-9(4-7)6-10/h3-5,10H,6H2,1-2H3
