13
metacyc 4-AMINO-BUTYRALDEHYDE  295.428666864 295.428666864 295.428666864 295.428666864 295.428666864 295.428666864 295.428666864 295.428666864 295.428666864 295.428666864 295.428666864 295.428666864 295.428666864 295.428666864 295.428666864
C          1.06682        0.07916       -0.08213
C          0.51570        0.85969       -1.27216
N          0.92388        2.25743       -1.23040
C          2.59321        0.03426       -0.04918
C          3.11732       -0.77552        1.11185
O          2.41252       -1.37192        1.91922
H          0.67473       -0.94518       -0.12749
H          0.68805        0.51059        0.85331
H         -0.57808        0.81171       -1.26615
H          0.85855        0.41288       -2.21119
H          3.01372        1.04073        0.04580
H          2.98366       -0.41567       -0.96823
H          4.21715       -0.81255        1.19501
13 13 13 13 13 13 13 13 13 13 13 13 13 13 13 13 13 13 13 13 13 13 13 13 13 13 13 13 13 13 13 13 13 13
C(C[N+])CC=O
InChI=1S/C4H9NO/c5-3-1-2-4-6/h4H,1-3,5H2/p+1
