13
metacyc 4-AMINO-BUTYRATE  33.26317656 33.26317656 33.26317656 33.26317656 33.26317656 33.26317656 33.26317656 33.26317656 33.26317656 33.26317656 33.26317656 33.26317656 33.26317656 33.26317656 33.26317656
C          1.02454        0.02121       -0.04896
C          0.54332       -0.33617        1.35559
N         -0.91459       -0.24533        1.42166
C          2.54748        0.07168       -0.13738
C          3.25884       -1.25051        0.15702
O          2.61113       -2.29813       -0.11330
O          4.41550       -1.12273        0.64748
H          0.63178        1.00566       -0.33420
H          0.62677       -0.69850       -0.77521
H          0.96716        0.35695        2.08990
H          0.84607       -1.34780        1.63979
H          2.92551        0.84245        0.54550
H          2.83692        0.37462       -1.15165
13 13 13 13 13 13 13 13 13 13 13 13 13 13 13 13 13 13 13 13 13 13 13 13 13 13 13 13 13 13 13 13 13 13
C(C[N+])CC([O-])=O
InChI=1S/C4H9NO2/c5-3-1-2-4(6)7/h1-3,5H2,(H,6,7)
