22
metacyc 4-ETHYLBENZYL-ALCOHOL  481.0070748 481.0070748 481.0070748 481.0070748 481.0070748 481.0070748 481.0070748 481.0070748 481.0070748 481.0070748 481.0070748 481.0070748 481.0070748 481.0070748 481.0070748
C          3.56434       -0.01426       -1.12221
C          2.49322       -0.02998       -0.04111
C          3.09673        0.00349        1.33976
C          3.36206        1.22563        1.96875
C          3.97142        1.25957        3.22573
C          4.32992        0.07263        3.88071
C          5.06709        0.13087        5.19508
O          4.71256       -0.94424        6.05569
C          4.06832       -1.14878        3.24485
C          3.45329       -1.18312        1.99043
H          3.10310       -0.03234       -2.11467
H          4.22479       -0.88422       -1.03953
H          4.18573        0.88530       -1.05351
H          1.86817       -0.92402       -0.15073
H          1.82246        0.82833       -0.17283
H          3.10862        2.16188        1.47665
H          4.18466        2.22463        3.68159
H          4.83161        1.06003        5.72463
H          6.14611        0.09922        5.01589
H          3.74148       -1.00950        6.03107
H          4.35882       -2.08470        3.71829
H          3.26985       -2.14462        1.51588
22 22 22 22 22 22 22 22 22 22 22 22 22 22 22 22 22 22 22 22 22 22 22 22 22 22 22 22 22 22 22 22 22 22 22 22 22 22 22 22 22 22 22 22 22 22 22 22 22 22 22 22 22 22 22 22 22 22 22 22 22
CCC1(=CC=C(CO)C=C1)
InChI=1S/C9H12O/c1-2-8-3-5-9(7-10)6-4-8/h3-6,10H,2,7H2,1H3
