17
metacyc 4-HYDROXY-BENZYL-ALCOHOL  143.96713048 143.96713048 143.96713048 143.96713048 143.96713048 143.96713048 143.96713048 143.96713048 143.96713048 143.96713048 143.96713048 143.96713048 143.96713048 143.96713048 143.96713048
C          0.88279       -0.10041        0.03877
C          0.57989       -1.43480       -0.58960
C          0.88133       -2.63012        0.07839
C          0.61721       -3.86414       -0.52159
C          0.05209       -3.90071       -1.79251
O         -0.20557       -5.08266       -2.42186
C         -0.26534       -2.72718       -2.46469
C         -0.00233       -1.49509       -1.86482
O          1.83229        0.61794       -0.73896
H          1.29984       -0.22273        1.04367
H         -0.03046        0.49678        0.12586
H          1.32605       -2.60892        1.07098
H          0.85759       -4.77734        0.01344
H          0.12274       -5.80743       -1.86565
H         -0.71133       -2.77010       -3.45416
H         -0.24870       -0.57876       -2.39769
H          2.31206       -0.02844       -1.28566
17 17 17 17 17 17 17 17 17 17 17 17 17 17 17 17 17 17 17 17 17 17 17 17 17 17 17 17 17 17 17 17 17 17 17 17 17 17 17 17 17 17 17 17 17 17
C(C1(C=CC(O)=CC=1))O
InChI=1S/C7H8O2/c8-5-6-1-3-7(9)4-2-6/h1-4,8-9H,5H2
