15
metacyc 4-HYDROXYBENZALDEHYDE  91.19747648 91.19747648 91.19747648 91.19747648 91.19747648 91.19747648 91.19747648 91.19747648 91.19747648 91.19747648 91.19747648 91.19747648 91.19747648 91.19747648 91.19747648
C          0.94028       -0.03709        0.09242
H          0.33031        0.88072        0.05303
C          0.20716       -1.31850        0.06970
C          0.90651       -2.52964        0.11336
C          0.20756       -3.73800        0.07916
C         -1.18270       -3.71982        0.00171
O         -1.90542       -4.87439       -0.04525
C         -1.88410       -2.51794       -0.03362
C         -1.18912       -1.30796       -0.00073
O          2.16306        0.01267        0.14901
H          1.99321       -2.53285        0.17174
H          0.75971       -4.67188        0.11286
H         -1.29154       -5.62744       -0.05961
H         -2.96949       -2.52648       -0.09074
H         -1.74395       -0.37440       -0.03281
15 15 15 15 15 15 15 15 15 15 15 15 15 15 15 15 15 15 15 15 15 15 15 15 15 15 15 15 15 15 15 15 15 15 15 15 15 15 15 15
[CH](C1(C=CC(O)=CC=1))=O
InChI=1S/C7H6O2/c8-5-6-1-3-7(9)4-2-6/h1-5,9H
