21
metacyc 4-HYDROXYCYCLOHEXANECARBOXYLATE  43.807576208 43.807576208 43.807576208 43.807576208 43.807576208 43.807576208 43.807576208 43.807576208 43.807576208 43.807576208 43.807576208 43.807576208 43.807576208 43.807576208 43.807576208
C          0.73126        1.24230       -0.17759
C         -0.74002        1.25649        0.22757
C         -1.47047        0.01231       -0.27138
O         -2.81202        0.02190        0.21902
C         -0.77852       -1.27597        0.16587
C          0.70652       -1.28071       -0.19242
C          1.44707       -0.02978        0.29606
C          1.70992        0.03603        1.81987
O          1.30017       -0.94585        2.49843
O          2.32174        1.07076        2.21111
H          1.22028        2.14397        0.20840
H          0.79909        1.30169       -1.27170
H         -1.22920        2.15309       -0.17237
H         -0.83168        1.33399        1.31839
H         -1.52730        0.03973       -1.36581
H         -2.74043       -0.03225        1.19005
H         -1.27611       -2.13502       -0.30091
H         -0.91213       -1.42012        1.24468
H          0.80148       -1.34100       -1.28455
H          1.17493       -2.18756        0.20787
H          2.44728       -0.04413       -0.15933
21 21 21 21 21 21 21 21 21 21 21 21 21 21 21 21 21 21 21 21 21 21 21 21 21 21 21 21 21 21 21 21 21 21 21 21 21 21 21 21 21 21 21 21 21 21 21 21 21 21 21 21 21 21 21 21 21 21
C1(CC(O)CCC1C(=O)[O-])
InChI=1S/C7H12O3/c8-6-3-1-5(2-4-6)7(9)10/h5-6,8H,1-4H2,(H,9,10)/p-1/t5-,6-
