17
metacyc 4-METHYLRESORCINOL  130.36913048 130.36913048 130.36913048 130.36913048 130.36913048 130.36913048 130.36913048 130.36913048 130.36913048 130.36913048 130.36913048 130.36913048 130.36913048 130.36913048 130.36913048
C          0.96264        0.07862        0.14305
C          2.45957        0.08542        0.03185
C          3.16279        1.29763       -0.01866
C          4.55492        1.30790       -0.13918
C          5.24365        0.10134       -0.21087
O          6.60158        0.06623       -0.33891
C          4.56829       -1.11201       -0.15690
C          3.17984       -1.11262       -0.03832
O          2.49313       -2.29386        0.00841
H          0.56327        1.09338        0.24380
H          0.64774       -0.48901        1.02463
H          0.52050       -0.36791       -0.75341
H          2.62818        2.24352        0.03385
H          5.07687        2.25881       -0.17625
H          6.92879        0.97819       -0.40724
H          5.13352       -2.03595       -0.21294
H          3.13253       -3.02314       -0.04849
17 17 17 17 17 17 17 17 17 17 17 17 17 17 17 17 17 17 17 17 17 17 17 17 17 17 17 17 17 17 17 17 17 17 17 17 17 17 17 17 17 17 17 17 17 17
CC1(=CC=C(O)C=C(O)1)
InChI=1S/C7H8O2/c1-5-2-3-6(8)4-7(5)9/h2-4,8-9H,1H3
