19
metacyc 4-METHYLPENTANAL  392.7665148 392.7665148 392.7665148 392.7665148 392.7665148 392.7665148 392.7665148 392.7665148 392.7665148 392.7665148 392.7665148 392.7665148 392.7665148 392.7665148 392.7665148
C          1.05657        0.06498        0.01733
C          2.58546        0.09121        0.09179
C          3.02764        0.94480        1.28116
C          3.12641       -1.34865        0.16347
C          4.65064       -1.43420        0.18108
C          5.14921       -2.85984        0.18801
O          4.42960       -3.85348        0.18312
H          0.65230        1.07933       -0.06782
H          0.62378       -0.39742        0.91146
H          0.71809       -0.50290       -0.85562
H          2.96016        0.56219       -0.82608
H          2.75051        0.47572        2.23127
H          2.56103        1.93522        1.24411
H          4.11087        1.09997        1.27911
H          2.75013       -1.91073       -0.70183
H          2.72339       -1.85239        1.05209
H          5.06095       -0.95408        1.07458
H          5.07250       -0.94076       -0.70128
H          6.24786       -2.96772        0.20412
19 19 19 19 19 19 19 19 19 19 19 19 19 19 19 19 19 19 19 19 19 19 19 19 19 19 19 19 19 19 19 19 19 19 19 19 19 19 19 19 19 19 19 19 19 19 19 19 19 19 19 19
CC(C)CCC=O
InChI=1S/C6H12O/c1-6(2)4-3-5-7/h5-6H,3-4H2,1-2H3
