19
metacyc 4-METHYLBENZYL-ALCOHOL  388.2802208 388.2802208 388.2802208 388.2802208 388.2802208 388.2802208 388.2802208 388.2802208 388.2802208 388.2802208 388.2802208 388.2802208 388.2802208 388.2802208 388.2802208
C          1.05511        0.09420        0.13415
C          2.54968        0.11749        0.01251
C          3.24800        1.32606       -0.04653
C          4.63651        1.33658       -0.20523
C          5.35464        0.13690       -0.30647
C          4.65011       -1.07296       -0.24819
C          3.26245       -1.08363       -0.08257
C          6.83801        0.17127       -0.57137
O          7.51875       -0.90951        0.05389
H          0.64462        1.10447        0.24368
H          0.75217       -0.48603        1.01181
H          0.61302       -0.35112       -0.76128
H          2.71652        2.27354        0.01858
H          5.15257        2.29250       -0.26662
H          5.17878       -2.02005       -0.34839
H          2.73718       -2.03616       -0.04702
H          7.27807        1.09668       -0.18472
H          7.02149        0.12452       -1.64922
H          7.19148       -0.95116        0.96833
19 19 19 19 19 19 19 19 19 19 19 19 19 19 19 19 19 19 19 19 19 19 19 19 19 19 19 19 19 19 19 19 19 19 19 19 19 19 19 19 19 19 19 19 19 19 19 19 19 19 19 19
CC1(C=CC(=CC=1)CO)
InChI=1S/C8H10O/c1-7-2-4-8(6-9)5-3-7/h2-5,9H,6H2,1H3
