20
metacyc 4-NITROQUINOLINE-N-OXIDE  56.093720664 56.093720664 56.093720664 56.093720664 56.093720664 56.093720664 56.093720664 56.093720664 56.093720664 56.093720664 56.093720664 56.093720664 56.093720664 56.093720664 56.093720664
C          2.41868       -0.57924        0.01404
N          1.24784       -1.32394        0.02177
O          1.33295       -2.59674        0.02709
C         -0.00494       -0.65819        0.01635
C         -1.20372       -1.40485        0.00511
C         -2.44799       -0.78014       -0.01731
C         -2.51963        0.60565       -0.02400
C         -1.34861        1.36787       -0.00818
C         -0.06410        0.76203        0.01353
C          1.17000        1.45836        0.01596
C          2.40442        0.80700        0.00836
N          1.20365        2.91294        0.01256
O          0.67522        3.49614        0.96680
O          1.79231        3.45450       -0.93184
H          3.31036       -1.18958        0.00971
H         -1.15609       -2.49433        0.00848
H         -3.35660       -1.37765       -0.03156
H         -3.48928        1.09926       -0.04162
H         -1.46228        2.45181       -0.01235
H          3.34104        1.35963       -0.00239
20 20 20 20 20 20 20 20 20 20 20 20 20 20 20 20 20 20 20 20 20 20 20 20 20 20 20 20 20 20 20 20 20 20 20 20 20 20 20 20 20 20 20 20 20 20 20 20 20 20 20 20 20 20 20
C2(=N(=O)C1(C=CC=CC=1C(=C2)[N+]([O-])=O))
InChI=1S/C9H6N2O3/c12-10-6-5-9(11(13)14)7-3-1-2-4-8(7)10/h1-6H
