14
metacyc 4-NITROANILINE  139.56058352 139.56058352 139.56058352 139.56058352 139.56058352 139.56058352 139.56058352 139.56058352 139.56058352 139.56058352 139.56058352 139.56058352 139.56058352 139.56058352 139.56058352
C         -0.76948        1.15531       -0.01553
C          0.62449        1.23157        0.00537
C          1.39914        0.06992       -0.00536
C          0.77860       -1.18235       -0.03845
C         -0.62164       -1.25864       -0.06095
C         -1.39984       -0.09208       -0.04873
N         -1.27866       -2.57174       -0.09917
O         -0.55519       -3.57771       -0.11063
O         -2.51738       -2.59562       -0.11813
N          1.26208        2.50593        0.03760
H         -1.36932        2.06291       -0.00682
H          2.48498        0.13403        0.01147
H          1.39494       -2.07925       -0.04695
H         -2.48711       -0.13630       -0.06515
14 14 14 14 14 14 14 14 14 14 14 14 14 14 14 14 14 14 14 14 14 14 14 14 14 14 14 14 14 14 14 14 14 14 14 14 14
C1(=C(C=CC(=C1)[N+]([O-])=O)[N+])
InChI=1S/C6H6N2O2/c7-5-1-3-6(4-2-5)8(9)10/h1-4H,7H2/p+1
