16
metacyc 5-AMINOPENTANOATE  125.989938512 125.989938512 125.989938512 125.989938512 125.989938512 125.989938512 125.989938512 125.989938512 125.989938512 125.989938512 125.989938512 125.989938512 125.989938512 125.989938512 125.989938512
C          0.98948        0.02762        0.07885
C          0.46404       -0.98738        1.10263
C          0.91566       -0.69347        2.53029
N          0.25412       -1.60107        3.46451
C          2.50921        0.13254       -0.00302
C          3.16095       -1.19592       -0.38884
O          2.83493       -1.65128       -1.51941
O          3.94890       -1.66552        0.47964
H          0.58465        1.01868        0.31954
H          0.58705       -0.23747       -0.90661
H          0.77097       -2.00061        0.81541
H         -0.63288       -0.97194        1.05594
H          0.65725        0.33468        2.80485
H          1.99790       -0.80743        2.63565
H          2.92297        0.50168        0.94255
H          2.78050        0.87158       -0.76655
16 16 16 16 16 16 16 16 16 16 16 16 16 16 16 16 16 16 16 16 16 16 16 16 16 16 16 16 16 16 16 16 16 16 16 16 16 16 16 16 16 16 16
C(CC[N+])CC(=O)[O-]
InChI=1S/C5H11NO2/c6-4-2-1-3-5(7)8/h1-4,6H2,(H,7,8)
