18
metacyc 5-AMINOPENTANAMIDE  388.20202184 388.20202184 388.20202184 388.20202184 388.20202184 388.20202184 388.20202184 388.20202184 388.20202184 388.20202184 388.20202184 388.20202184 388.20202184 388.20202184 388.20202184
C          0.93756       -0.01014       -0.01938
O          0.41703       -1.00347       -0.51085
C          0.18026        1.16517        0.56219
C         -1.33140        0.96951        0.46551
C         -2.09375        2.15743        1.05339
C         -3.60192        1.94555        0.94885
N         -4.30343        3.08993        1.51511
N          2.29389        0.11283        0.04157
H          0.47746        2.06921        0.01805
H          0.47759        1.28112        1.61092
H         -1.61775        0.05101        0.99310
H         -1.61790        0.83177       -0.58470
H         -1.80851        3.07432        0.52201
H         -1.80822        2.29134        2.10456
H         -3.89971        1.04030        1.48793
H         -3.89999        1.82472       -0.09773
H          2.85157       -0.64402       -0.33307
H          2.76188        0.91514        0.43837
18 18 18 18 18 18 18 18 18 18 18 18 18 18 18 18 18 18 18 18 18 18 18 18 18 18 18 18 18 18 18 18 18 18 18 18 18 18 18 18 18 18 18 18 18 18 18 18 18
C(=O)(CCCC[N+])N
InChI=1S/C5H12N2O/c6-4-2-1-3-5(7)8/h1-4,6H2,(H2,7,8)/p+1
