30
metacyc 6-LACTOYL-5678-TETRAHYDROPTERIN  229.59938488 229.59938488 229.59938488 229.59938488 229.59938488 229.59938488 229.59938488 229.59938488 229.59938488 229.59938488 229.59938488 229.59938488 229.59938488 229.59938488 229.59938488
C          0.89375       -1.30890        0.63129
C          2.39871       -1.46261        0.79488
O          2.99177       -1.64470       -0.48462
C          3.04596       -0.27056        1.51736
O          2.37499        0.69852        1.88357
C          4.56929       -0.32593        1.66919
H          4.99841       -0.32166        0.65914
C          5.04224       -1.58961        2.43623
N          6.49724       -1.54240        2.62724
C          7.13691       -0.33784        2.94082
N          8.44565       -0.37824        3.35005
C          9.05066        0.73831        3.59208
N         10.35478        0.74050        3.96274
N          8.44316        1.94953        3.50460
C          7.15100        2.08923        3.09621
O          6.62346        3.18914        2.95218
C          6.43125        0.81814        2.80452
N          5.09493        0.86010        2.38155
H          0.47726       -2.17395        0.10345
H          0.64871       -0.42414        0.03331
H          0.39671       -1.21670        1.60171
H          2.58772       -2.36319        1.38609
H          2.66070       -0.93952       -1.07231
H          4.78729       -2.50488        1.89488
H          4.55520       -1.63959        3.41913
H          6.93395       -2.31702        3.11571
H         10.68206       -0.18559        4.21931
H         10.65979        1.46696        4.59484
H          8.95727        2.79862        3.65475
H          4.79635        1.77738        2.04978
30 30 30 30 30 30 30 30 30 30 30 30 30 30 30 30 30 30 30 30 30 30 30 30 30 30 30 30 30 30 30 30 30 30 30 30 30 30 30 30 30 30 30 30 30 30 30 30 30 30 30 30 30 30 30 30 30 30 30 30 30 30 30 30 30 30 30 30 30 30 30 30 30 30 30 30 30 30 30 30 30 30 30 30 30
CC(O)C(=O)[CH]1(CNC2(N=C(N)NC(=O)C(N1)=2))
InChI=1S/C9H13N5O3/c1-3(15)6(16)4-2-11-7-5(12-4)8(17)14-9(10)13-7/h3-4,12,15H,2H2,1H3,(H4,10,11,13,14,17)/t3-,4+/m0/s1
