19
metacyc 6-METHYL-INDOLE  521.2054824 521.2054824 521.2054824 521.2054824 521.2054824 521.2054824 521.2054824 521.2054824 521.2054824 521.2054824 521.2054824 521.2054824 521.2054824 521.2054824 521.2054824
C          1.00792        0.07816       -0.03167
C          2.50931        0.06457       -0.06410
C          3.21004       -1.14596       -0.08239
C          4.61058       -1.17139       -0.11983
C          5.32268        0.04185       -0.14011
C          4.60779        1.23846       -0.11506
N          5.52949        2.26103       -0.13977
C          6.80063        1.75195       -0.18632
C          6.70387        0.37920       -0.18515
C          3.20823        1.28278       -0.07462
H          0.59526       -0.93566       -0.06245
H          0.61797        0.62357       -0.89733
H          0.65481        0.55854        0.88636
H          2.67178       -2.09128       -0.07011
H          5.13913       -2.11964       -0.13626
H          5.29430        3.24329       -0.12889
H          7.66015        2.40762       -0.21626
H          7.53518       -0.31245       -0.21618
H          2.67891        2.23049       -0.05635
19 19 19 19 19 19 19 19 19 19 19 19 19 19 19 19 19 19 19 19 19 19 19 19 19 19 19 19 19 19 19 19 19 19 19 19 19 19 19 19 19 19 19 19 19 19 19 19 19 19 19 19
CC2(C=CC1(=C(NC=C1)C=2))
InChI=1S/C9H9N/c1-7-2-3-8-4-5-10-9(8)6-7/h2-6,10H,1H3
