20
metacyc 7-AMINOMETHYL-7-DEAZAGUANINE  356.7703076 356.7703076 356.7703076 356.7703076 356.7703076 356.7703076 356.7703076 356.7703076 356.7703076 356.7703076 356.7703076 356.7703076 356.7703076 356.7703076 356.7703076
C          0.93939        0.04149       -0.00653
N          0.46083        0.74361        1.17836
C          2.43198       -0.00822        0.02466
C          3.26152       -1.16834        0.03361
C          3.01355       -2.59007        0.01852
O          1.90015       -3.10067        0.00275
N          4.17681       -3.34033        0.00561
C          5.44676       -2.80384       -0.03207
N          6.47399       -3.68415       -0.11628
N          5.69122       -1.52278       -0.00199
C          4.57530       -0.75878        0.03133
N          4.59476        0.60352        0.03060
C          3.30515        1.07385        0.01138
H          0.60518        0.57289       -0.90465
H          0.49738       -0.95743       -0.03160
H          4.04610       -4.33495       -0.03662
H          6.35446       -4.64639        0.16179
H          7.38692       -3.28322        0.06999
H          5.43748        1.16050        0.02475
H          3.11172        2.13855       -0.00409
20 20 20 20 20 20 20 20 20 20 20 20 20 20 20 20 20 20 20 20 20 20 20 20 20 20 20 20 20 20 20 20 20 20 20 20 20 20 20 20 20 20 20 20 20 20 20 20 20 20 20 20 20 20 20
C([N+])C2(C1(C(=O)NC(N)=NC=1NC=2))
InChI=1S/C7H9N5O/c8-1-3-2-10-5-4(3)6(13)12-7(9)11-5/h2H,1,8H2,(H4,9,10,11,12,13)/p+1
