27
metacyc 8-AMINO-7-OXONONANOATE  277.7717852 277.7717852 277.7717852 277.7717852 277.7717852 277.7717852 277.7717852 277.7717852 277.7717852 277.7717852 277.7717852 277.7717852 277.7717852 277.7717852 277.7717852
C          0.92926       -1.01002       -0.67286
C          1.59330       -1.22010        0.67803
C          3.11664       -1.06800        0.60791
C          3.88263       -2.13432       -0.15475
C          4.20846       -1.67073       -1.56975
C          5.07092       -2.68785       -2.31831
C          5.29822       -2.24195       -3.76537
C          6.15751       -3.21909       -4.55951
C          5.55662       -4.60986       -4.78901
O          4.29704       -4.68017       -4.77503
O          6.40869       -5.52248       -4.97388
O          3.72968       -0.13650        1.13720
N          1.05736       -0.23892        1.62254
H          1.16026       -1.83806       -1.35066
H          1.26743       -0.08326       -1.15023
H         -0.16195       -0.96851       -0.58027
H          1.36517       -2.21784        1.06577
H          3.30279       -3.06410       -0.16368
H          4.80410       -2.34416        0.40430
H          4.72446       -0.70363       -1.53526
H          3.28116       -1.50519       -2.12855
H          4.57616       -3.66678       -2.29564
H          6.03421       -2.80229       -1.80820
H          5.79386       -1.26350       -3.76449
H          4.33192       -2.10352       -4.26601
H          7.13589       -3.32504       -4.07290
H          6.34327       -2.79257       -5.55357
27 27 27 27 27 27 27 27 27 27 27 27 27 27 27 27 27 27 27 27 27 27 27 27 27 27 27 27 27 27 27 27 27 27 27 27 27 27 27 27 27 27 27 27 27 27 27 27 27 27 27 27 27 27 27 27 27 27 27 27 27 27 27 27 27 27 27 27 27 27 27 27 27 27 27 27
CC(C(CCCCCC([O-])=O)=O)[N+]
InChI=1S/C9H17NO3/c1-7(10)8(11)5-3-2-4-6-9(12)13/h7H,2-6,10H2,1H3,(H,12,13)
