27
metacyc A-PYRIMIDODIAZEPINE  334.31130688 334.31130688 334.31130688 334.31130688 334.31130688 334.31130688 334.31130688 334.31130688 334.31130688 334.31130688 334.31130688 334.31130688 334.31130688 334.31130688 334.31130688
C          2.24590        0.32765        1.40729
C          2.74209       -0.31423        0.14572
O          2.34289       -1.40329       -0.25005
C          3.68838        0.48872       -0.74463
C          3.96235       -0.12192       -2.09939
C          4.77403        0.81282       -2.96901
N          3.91502        1.91093       -3.34846
C          3.48152        2.85936       -2.45975
N          2.89276        3.94304       -2.88735
C          2.64891        4.89960       -1.92583
N          1.46302        5.55295       -1.94279
N          3.44784        5.12349       -0.91983
C          4.35601        4.11070       -0.69321
O          5.51859        4.26951       -0.34909
C          3.67309        2.77263       -0.95829
N          4.26368        1.57347       -0.31825
H          1.58992       -0.37723        1.93073
H          1.66373        1.22302        1.17432
H          3.08319        0.56815        2.06384
H          3.00278       -0.35291       -2.57971
H          4.50348       -1.05923       -1.94243
H          5.10713        0.28096       -3.86657
H          5.67522        1.18097       -2.46339
H          3.98794        2.23609       -4.31053
H          0.71122        4.87286       -1.87334
H          1.41943        6.17229       -1.14468
H          2.67410        2.86431       -0.50533
27 27 27 27 27 27 27 27 27 27 27 27 27 27 27 27 27 27 27 27 27 27 27 27 27 27 27 27 27 27 27 27 27 27 27 27 27 27 27 27 27 27 27 27 27 27 27 27 27 27 27 27 27 27 27 27 27 27 27 27 27 27 27 27 27 27 27 27 27 27 27 27 27 27 27 27
CC(=O)C1(CCNC2(=NC(N)=NC(=O)C(N=1)2))
InChI=1S/C9H11N5O2/c1-4(15)5-2-3-11-7-6(12-5)8(16)14-9(10)13-7/h6H,2-3H2,1H3,(H3,10,11,13,14,16)
