12
metacyc ACETONE-OXIME  162.330196032 162.330196032 162.330196032 162.330196032 162.330196032 162.330196032 162.330196032 162.330196032 162.330196032 162.330196032 162.330196032 162.330196032 162.330196032 162.330196032 162.330196032
C          1.03932       -0.06332       -0.08948
C          2.54633       -0.06164       -0.09722
C          3.27278       -0.34050        1.19583
N          3.14403        0.18177       -1.22594
O          4.53532        0.15076       -1.08214
H          0.64699       -0.27820        0.90695
H          0.67586       -0.82467       -0.78546
H          0.67585        0.91721       -0.40981
H          2.56768       -0.51644        2.01171
H          3.89923        0.51714        1.45645
H          3.89922       -1.22933        1.07982
H          4.84241        0.34593       -1.98715
12 12 12 12 12 12 12 12 12 12 12 12 12 12 12 12 12 12 12 12 12 12 12 12 12 12 12 12 12 12 12
CC(C)=NO
InChI=1S/C3H7NO/c1-3(2)4-5/h5H,1-2H3
