26
metacyc ACETYLCHOLINE  323.69880008 323.69880008 323.69880008 323.69880008 323.69880008 323.69880008 323.69880008 323.69880008 323.69880008 323.69880008 323.69880008 323.69880008 323.69880008 323.69880008 323.69880008
C          1.05005        1.82568       -0.43140
C          2.54507        1.83635       -0.46923
O          3.23219        2.45527       -1.26992
O          3.05855        1.08865        0.55003
C          4.49504        1.00396        0.56485
C          5.11345        2.29391        1.12942
N          6.65628        2.32288        1.14439
C          7.23018        1.18786        1.97956
C          7.21482        2.26220       -0.27475
C          7.09229        3.65219        1.76945
H          0.66168        2.39675       -1.27923
H          0.70264        2.29184        0.49452
H          0.68194        0.79938       -0.50613
H          4.85764        0.76640       -0.44051
H          4.74296        0.15127        1.20424
H          4.77824        2.43674        2.16425
H          4.78728        3.17526        0.56603
H          6.99906        0.23769        1.49166
H          6.78203        1.23126        2.97638
H          8.31501        1.31801        2.04116
H          6.98659        1.28390       -0.70396
H          8.29955        2.39714       -0.22270
H          6.75677        3.06273       -0.86252
H          6.69678        3.70069        2.78830
H          6.69164        4.46893        1.16150
H          8.18584        3.68769        1.78304
26 26 26 26 26 26 26 26 26 26 26 26 26 26 26 26 26 26 26 26 26 26 26 26 26 26 26 26 26 26 26 26 26 26 26 26 26 26 26 26 26 26 26 26 26 26 26 26 26 26 26 26 26 26 26 26 26 26 26 26 26 26 26 26 26 26 26 26 26 26 26 26 26
CC(=O)OCC[N+](C)(C)C
InChI=1S/C7H16NO2/c1-7(9)10-6-5-8(2,3)4/h5-6H2,1-4H3/q+1
