7
metacyc ACETALD  32.1518710144 32.1518710144 32.1518710144 32.1518710144 32.1518710144 32.1518710144 32.1518710144 32.1518710144 32.1518710144 32.1518710144 32.1518710144 32.1518710144 32.1518710144 32.1518710144 32.1518710144
C          0.95275       -0.05955       -0.06123
C          2.44956       -0.06078       -0.09066
H          2.95088       -0.01977        0.89096
O          3.09955       -0.10420       -1.13022
H          0.61485       -0.01615        0.97748
H          0.57757       -0.97779       -0.51855
H          0.57757        0.81735       -0.59354
7 7 7 7 7 7 7 7 7 7 7 7 7 7 7 7
C[CH]=O
InChI=1S/C2H4O/c1-2-3/h2H,1H3
