10
metacyc ACRYLAMIDE  120.564474584 120.564474584 120.564474584 120.564474584 120.564474584 120.564474584 120.564474584 120.564474584 120.564474584 120.564474584 120.564474584 120.564474584 120.564474584 120.564474584 120.564474584
C          0.98765       -0.06394       -0.00267
C          2.32569       -0.07879        0.04171
C          3.02810       -0.53002        1.26430
O          2.46290       -0.90551        2.28057
N          4.38272       -0.49245        1.16366
H          0.46219        0.26447       -0.89247
H          0.38906       -0.37933        0.84833
H          2.91364        0.23682       -0.80989
H          4.88121       -0.18894        0.34106
H          4.91376       -0.79066        1.97109
10 10 10 10 10 10 10 10 10 10 10 10 10 10 10 10 10 10 10 10 10 10 10 10 10
C=CC(=O)N
InChI=1S/C3H5NO/c1-2-3(4)5/h2H,1H2,(H2,4,5)
