7
metacyc ACRYLONITRILE  250.970394976 250.970394976 250.970394976 250.970394976 250.970394976 250.970394976 250.970394976 250.970394976 250.970394976 250.970394976 250.970394976 250.970394976 250.970394976 250.970394976 250.970394976
C          0.97260       -0.08909        0.07825
C          2.30994       -0.07254        0.04682
C          3.06994        0.54050       -1.11808
N          3.70043        1.04906       -2.08446
H          0.44316       -0.53037        0.91678
H          0.37649        0.33399       -0.72567
H          2.91379       -0.49165        0.84320
7 7 7 7 7 7 7 7 7 7 7 7 7 7 7 7
C=CC#N
InChI=1S/C3H3N/c1-2-3-4/h2H,1H2
