15
metacyc ADENINE  525.5338304 525.5338304 525.5338304 525.5338304 525.5338304 525.5338304 525.5338304 525.5338304 525.5338304 525.5338304 525.5338304 525.5338304 525.5338304 525.5338304 525.5338304
C          0.91898       -1.42742       -0.10488
N          1.00490       -2.81198       -0.18111
N          2.06938       -0.71577       -0.05594
C          1.98837        0.63259        0.00577
N          0.88363        1.40692        0.04131
C         -0.22099        0.64820        0.00839
N         -1.51543        1.07842        0.03243
C         -2.31927       -0.02917       -0.00273
N         -1.61959       -1.14377       -0.05276
C         -0.30058       -0.73174       -0.05792
H          1.89288       -3.15694        0.15784
H          0.16339       -3.28446        0.12937
H          2.93806        1.15995        0.03143
H         -1.80877        2.04273        0.07011
H         -3.39925        0.04010        0.00999
15 15 15 15 15 15 15 15 15 15 15 15 15 15 15 15 15 15 15 15 15 15 15 15 15 15 15 15 15 15 15 15 15 15 15 15 15 15 15 15
C1(N)(N=CN=C2(NC=NC=12))
InChI=1S/C5H5N5/c6-4-3-5(9-1-7-3)10-2-8-4/h1-2H,(H3,6,7,8,9,10)
