18
metacyc ALLYSINE  13.2729872984 13.2729872984 13.2729872984 13.2729872984 13.2729872984 13.2729872984 13.2729872984 13.2729872984 13.2729872984 13.2729872984 13.2729872984 13.2729872984 13.2729872984 13.2729872984 13.2729872984
C          1.04619        0.09048       -0.00119
H          0.56149       -0.29842        0.91114
O          0.37205        0.43438       -0.96737
C          2.55146        0.08965        0.00934
C          3.06226        0.87042        1.21529
C          4.59155        0.84372        1.28389
C          5.15434        1.64662        2.46085
N          4.72118        1.06908        3.73978
C          6.70376        1.66833        2.47803
O          7.28775        0.66683        1.96906
O          7.21676        2.72174        2.96093
H          2.91585        0.52987       -0.92445
H          2.88258       -0.95331        0.05322
H          2.63433        0.44374        2.13075
H          2.70903        1.90773        1.15862
H          4.99944        1.25224        0.35016
H          4.92881       -0.20006        1.33621
H          4.79199        2.67977        2.40190
18 18 18 18 18 18 18 18 18 18 18 18 18 18 18 18 18 18 18 18 18 18 18 18 18 18 18 18 18 18 18 18 18 18 18 18 18 18 18 18 18 18 18 18 18 18 18 18 18
[CH](=O)CCCC([N+])C(=O)[O-]
InChI=1S/C6H11NO3/c7-5(6(9)10)3-1-2-4-8/h4-5H,1-3,7H2,(H,9,10)/t5-/m0/s1
