9
metacyc ALLYL-ALCOHOL  173.2875774 173.2875774 173.2875774 173.2875774 173.2875774 173.2875774 173.2875774 173.2875774 173.2875774 173.2875774 173.2875774 173.2875774 173.2875774 173.2875774 173.2875774
C          1.11741       -0.05748        0.07022
C          2.45446       -0.04619        0.04231
C          3.23697        0.55718        1.07282
H          2.86430        1.05014        1.95698
O          4.59737        0.53808        0.97813
H          0.55183       -0.52509       -0.72968
H          0.55334        0.39361        0.88094
H          2.96883       -0.51229       -0.79316
H          4.92137        0.09408        0.17641
9 9 9 9 9 9 9 9 9 9 9 9 9 9 9 9 9 9 9 9 9 9
C=C[CH]O
InChI=1S/C3H6O/c1-2-3-4/h2,4H,1,3H2
