23
metacyc ALPHA-METHYLDOPAMINE  388.79246792 388.79246792 388.79246792 388.79246792 388.79246792 388.79246792 388.79246792 388.79246792 388.79246792 388.79246792 388.79246792 388.79246792 388.79246792 388.79246792 388.79246792
C          5.40312       -0.23269       -1.16181
C          4.35386        0.85186       -1.39700
C          2.91228        0.31598       -1.39093
C          2.62329       -0.64706       -2.52081
C          2.73868       -2.03243       -2.31720
C          2.51973       -2.90313       -3.37863
C          2.17505       -2.41107       -4.63380
C          2.04083       -1.04800       -4.84944
C          2.26883       -0.16421       -3.79246
O          1.97312       -3.27451       -5.67197
O          2.64006       -4.25718       -3.23573
N          4.48407        1.84723       -0.33125
H          5.41759       -0.95466       -1.98474
H          5.21585       -0.78172       -0.23200
H          6.40838        0.19968       -1.10176
H          4.56502        1.34620       -2.35205
H          2.20467        1.15367       -1.46808
H          2.68522       -0.17022       -0.43239
H          3.01438       -2.41239       -1.33798
H          1.76666       -0.67704       -5.83225
H          2.16853        0.90521       -3.96863
H          2.13751       -4.15889       -5.28840
H          2.87349       -4.44736       -2.31136
23 23 23 23 23 23 23 23 23 23 23 23 23 23 23 23 23 23 23 23 23 23 23 23 23 23 23 23 23 23 23 23 23 23 23 23 23 23 23 23 23 23 23 23 23 23 23 23 23 23 23 23 23 23 23 23 23 23 23 23 23 23 23 23
CC(CC1(=CC(=C(C=C1)O)O))[N+]
InChI=1S/C9H13NO2/c1-6(10)4-7-2-3-8(11)9(12)5-7/h2-3,5-6,11-12H,4,10H2,1H3/p+1
