23
metacyc AMINO-OH-HYDROXYMETHYL-DIHYDROPTERIDINE  177.74088056 177.74088056 177.74088056 177.74088056 177.74088056 177.74088056 177.74088056 177.74088056 177.74088056 177.74088056 177.74088056 177.74088056 177.74088056 177.74088056 177.74088056
C          0.97978        0.07457        0.02107
O          0.44521        0.04558        1.33064
C          2.49875        0.07877        0.05948
N          3.11281        1.22679        0.13000
C          4.50036        1.19095        0.10871
C          5.25011        2.48535        0.03448
O          4.70389        3.58530        0.00878
N          6.60831        2.38194       -0.01471
C          7.24904        1.18922       -0.04459
N          8.60020        1.22779       -0.14927
N          6.62843        0.05928        0.02435
C          5.25725        0.06462        0.12020
N          4.61357       -1.15704        0.21598
C          3.18404       -1.28351        0.01344
H          0.61511        0.96850       -0.49529
H          0.62832       -0.80634       -0.52327
H          0.67804        0.90208        1.73664
H          7.11364        3.24714       -0.10348
H          9.07769        2.01410        0.26914
H          9.02996        0.33446        0.06892
H          5.21046       -1.92744       -0.06608
H          2.75813       -1.92198        0.79349
H          2.98121       -1.73870       -0.96149
23 23 23 23 23 23 23 23 23 23 23 23 23 23 23 23 23 23 23 23 23 23 23 23 23 23 23 23 23 23 23 23 23 23 23 23 23 23 23 23 23 23 23 23 23 23 23 23 23 23 23 23 23 23 23 23 23 23 23 23 23 23 23 23
C(O)C2(=NC1(C(=O)NC(N)=NC=1NC2))
InChI=1S/C7H9N5O2/c8-7-11-5-4(6(14)12-7)10-3(2-13)1-9-5/h13H,1-2H2,(H4,8,9,11,12,14)
