28
metacyc ARGININE-METHYL-ESTER  472.23548616 472.23548616 472.23548616 472.23548616 472.23548616 472.23548616 472.23548616 472.23548616 472.23548616 472.23548616 472.23548616 472.23548616 472.23548616 472.23548616 472.23548616
C          2.91795        0.81995       -0.75007
O          2.25683       -0.10594        0.11697
C          3.08001       -1.01932        0.69831
C          2.34243       -2.02906        1.60558
C          2.73025       -1.84431        3.08423
C          4.20739       -2.12164        3.38642
C          4.51490       -1.94665        4.86774
N          5.95214       -2.13899        5.08458
C          6.89191       -1.22237        5.01353
N          6.70982        0.03900        4.71828
N          8.06633       -1.59186        5.25199
N          0.87603       -1.93204        1.48479
O          4.30133       -1.01959        0.56229
H          2.21624        1.62204       -0.99310
H          3.21496        0.31998       -1.67735
H          3.78886        1.26770       -0.26033
H          2.62661       -3.02765        1.25366
H          2.12470       -2.52194        3.70170
H          2.48824       -0.82137        3.40368
H          4.85193       -1.43608        2.82802
H          4.47162       -3.13815        3.07010
H          3.97796       -2.68733        5.46817
H          4.22311       -0.95216        5.22205
H          6.29333       -3.06729        5.31627
H          5.81037        0.42555        4.48376
H          7.52083        0.64665        4.69246
H          0.53855       -1.04822        1.86683
H          0.41492       -2.67893        2.00182
28 28 28 28 28 28 28 28 28 28 28 28 28 28 28 28 28 28 28 28 28 28 28 28 28 28 28 28 28 28 28 28 28 28 28 28 28 28 28 28 28 28 28 28 28 28 28 28 28 28 28 28 28 28 28 28 28 28 28 28 28 28 28 28 28 28 28 28 28 28 28 28 28 28 28 28 28 28 28
COC(C(CCCNC(N)=[N+])N)=O
InChI=1S/C7H16N4O2/c1-13-6(12)5(8)3-2-4-11-7(9)10/h5H,2-4,8H2,1H3,(H4,9,10,11)/p+1
