15
metacyc BENZIMIDAZOLE  395.92238048 395.92238048 395.92238048 395.92238048 395.92238048 395.92238048 395.92238048 395.92238048 395.92238048 395.92238048 395.92238048 395.92238048 395.92238048 395.92238048 395.92238048
C         -2.33670       -0.06081        0.00012
N         -1.59012       -1.14104       -0.00007
C         -0.29450       -0.68317        0.00011
C          0.91137       -1.39860        0.00003
C          2.11641       -0.68414        0.00028
C          2.12020        0.71332        0.00059
C          0.92658        1.44521        0.00066
C         -0.25927        0.70777        0.00041
N         -1.58012        1.07706        0.00039
H         -3.41824       -0.03884        0.00007
H          0.89977       -2.48261       -0.00022
H          3.05866       -1.22698        0.00022
H          3.07057        1.24361        0.00079
H          0.93140        2.52947        0.00091
H         -1.93196        2.02294        0.00056
15 15 15 15 15 15 15 15 15 15 15 15 15 15 15 15 15 15 15 15 15 15 15 15 15 15 15 15 15 15 15 15 15 15 15 15 15 15 15 15
C1(=NC2(=CC=CC=C(N1)2))
InChI=1S/C7H6N2/c1-2-4-7-6(3-1)8-5-9-7/h1-5H,(H,8,9)
