15
metacyc BENZYLAMINE  541.28056544 541.28056544 541.28056544 541.28056544 541.28056544 541.28056544 541.28056544 541.28056544 541.28056544 541.28056544 541.28056544 541.28056544 541.28056544 541.28056544 541.28056544
C          0.97380        0.06003        0.11431
C          0.66136       -0.93061       -0.97740
C          0.74965       -2.30962       -0.73591
C          0.47563       -3.22604       -1.75272
C          0.11783       -2.77473       -3.02169
C          0.03651       -1.40715       -3.27676
C          0.31000       -0.48881       -2.26172
N          2.38224        0.43266        0.11801
H          0.70699       -0.36157        1.09001
H          0.35974        0.95908       -0.01060
H          1.03810       -2.67806        0.24626
H          0.54707       -4.29257       -1.55600
H         -0.09107       -3.48886       -3.81382
H         -0.23463       -1.05504       -4.26870
H          0.25273        0.57549       -2.47979
15 15 15 15 15 15 15 15 15 15 15 15 15 15 15 15 15 15 15 15 15 15 15 15 15 15 15 15 15 15 15 15 15 15 15 15 15 15 15 15
C(C1(C=CC=CC=1))[N+]
InChI=1S/C7H9N/c8-6-7-4-2-1-3-5-7/h1-5H,6,8H2/p+1
