12
metacyc BENZENE  382.36207832 382.36207832 382.36207832 382.36207832 382.36207832 382.36207832 382.36207832 382.36207832 382.36207832 382.36207832 382.36207832 382.36207832 382.36207832 382.36207832 382.36207832
C         -0.76163        1.17873       -0.00430
C          0.63118        1.25360       -0.00686
C          1.39242        0.08482       -0.00886
C          0.76086       -1.15883       -0.00830
C         -0.63196       -1.23370       -0.00575
C         -1.39320       -0.06492       -0.00375
H         -1.35473        2.08934       -0.00274
H          1.12324        2.22254       -0.00729
H          2.47758        0.14315       -0.01085
H          1.35395       -2.06944       -0.00985
H         -1.12402       -2.20264       -0.00531
H         -2.47836       -0.12325       -0.00176
12 12 12 12 12 12 12 12 12 12 12 12 12 12 12 12 12 12 12 12 12 12 12 12 12 12 12 12 12 12 12
C1(C=CC=CC=1)
InChI=1S/C6H6/c1-2-4-6-5-3-1/h1-6H
