9
metacyc BETA-AMINOPROPIONITRILE  326.66910536 326.66910536 326.66910536 326.66910536 326.66910536 326.66910536 326.66910536 326.66910536 326.66910536 326.66910536 326.66910536 326.66910536 326.66910536 326.66910536 326.66910536
C          0.92730       -0.02961        0.08182
C          0.44495        0.94167        1.06929
N          0.07296        1.71216        1.85266
C          2.44926       -0.04939        0.06163
N          2.92171       -1.01697       -0.92116
H          0.53799        0.23288       -0.90923
H          0.53803       -1.02487        0.32796
H          2.84707       -0.31784        1.04670
H          2.84695        0.93978       -0.19152
9 9 9 9 9 9 9 9 9 9 9 9 9 9 9 9 9 9 9 9 9 9
C(C#N)C[N+]
InChI=1S/C3H6N2/c4-2-1-3-5/h1-2,4H2/p+1
