16
metacyc BUTANEDIOL  94.437913352 94.437913352 94.437913352 94.437913352 94.437913352 94.437913352 94.437913352 94.437913352 94.437913352 94.437913352 94.437913352 94.437913352 94.437913352 94.437913352 94.437913352
C          0.95968        0.00385        0.16695
C          2.47531       -0.08788        0.07953
C          2.99325       -0.36644       -1.35001
O          4.42618       -0.35956       -1.36123
C          2.52236       -1.69699       -1.91645
O          3.02476        1.14126        0.56830
H          0.48279       -0.95326       -0.06191
H          0.57356        0.76447       -0.52000
H          0.65332        0.30547        1.17446
H          2.83242       -0.86697        0.76228
H          2.68501        0.44350       -2.01923
H          4.73515       -0.72101       -0.51118
H          2.80299       -2.52462       -1.25660
H          3.00119       -1.88981       -2.88331
H          1.43923       -1.71380       -2.06251
H          3.09942        1.75719       -0.18254
16 16 16 16 16 16 16 16 16 16 16 16 16 16 16 16 16 16 16 16 16 16 16 16 16 16 16 16 16 16 16 16 16 16 16 16 16 16 16 16 16 16 16
CC(C(O)C)O
InChI=1S/C4H10O2/c1-3(5)4(2)6/h3-6H,1-2H3/t3-,4-/m1/s1
