10
metacyc BUTADIENE  417.67503832 417.67503832 417.67503832 417.67503832 417.67503832 417.67503832 417.67503832 417.67503832 417.67503832 417.67503832 417.67503832 417.67503832 417.67503832 417.67503832 417.67503832
C          1.08962       -0.07277       -0.06108
C          2.42718       -0.08388       -0.08020
C          3.19073       -0.67181       -1.15256
C          4.52847       -0.68379       -1.17225
H          0.55493        0.38137        0.76727
H          0.49591       -0.50915       -0.85791
H          2.97226        0.36842        0.74572
H          2.64543       -1.12368       -1.97862
H          5.12265       -0.24803       -0.37543
H          5.06254       -1.13806       -2.00092
10 10 10 10 10 10 10 10 10 10 10 10 10 10 10 10 10 10 10 10 10 10 10 10 10
C=CC=C
InChI=1S/C4H6/c1-3-4-2/h3-4H,1-2H2
