17
metacyc CADAVERINE  663.95774664 663.95774664 663.95774664 663.95774664 663.95774664 663.95774664 663.95774664 663.95774664 663.95774664 663.95774664 663.95774664 663.95774664 663.95774664 663.95774664 663.95774664
C          0.91501       -0.04907       -0.04207
N          0.43690       -0.23343        1.32137
C          2.44113       -0.04609       -0.06331
C          2.97509        0.14677       -1.48459
C          4.50537        0.14972       -1.50973
C          5.03432        0.34240       -2.92838
N          6.49085        0.34084       -2.92066
H          0.52505        0.89628       -0.43314
H          0.52521       -0.85674       -0.67009
H          2.82050       -0.99203        0.34374
H          2.82044        0.75728        0.58103
H          2.59940        1.09306       -1.89264
H          2.59888       -0.65617       -2.13023
H          4.87880       -0.79702       -1.09904
H          4.87936        0.95222       -0.86124
H          4.67983        1.29156       -3.34329
H          4.67921       -0.46129       -3.58159
17 17 17 17 17 17 17 17 17 17 17 17 17 17 17 17 17 17 17 17 17 17 17 17 17 17 17 17 17 17 17 17 17 17 17 17 17 17 17 17 17 17 17 17 17 17
C([N+])CCCC[N+]
InChI=1S/C5H14N2/c6-4-2-1-3-5-7/h1-7H2/p+2
