20
metacyc CANAVANINE  144.44214 144.44214 144.44214 144.44214 144.44214 144.44214 144.44214 144.44214 144.44214 144.44214 144.44214 144.44214 144.44214 144.44214 144.44214
C          0.96603       -0.10515       -0.07638
C          0.43990        1.32121        0.03798
C         -1.08603        1.43284        0.04768
N         -1.65810        0.89744       -1.19190
C         -1.69052        0.65741        1.24132
O         -1.47070       -0.59026        1.26418
O         -2.24834        1.38190        2.11237
O          2.39664       -0.07665       -0.19924
N          2.85038       -1.39202       -0.22517
C          4.14591       -1.59112       -0.23815
N          4.56855       -2.77074       -0.27458
N          5.02523       -0.61981       -0.21431
H          0.55888       -0.61154       -0.95792
H          0.74877       -0.68790        0.82068
H          0.84805        1.92014       -0.78714
H          0.84861        1.77231        0.95182
H         -1.36606        2.48977        0.12155
H          2.18052       -2.15717       -0.21205
H          4.69915        0.33564       -0.16484
H          6.01038       -0.83776       -0.22074
20 20 20 20 20 20 20 20 20 20 20 20 20 20 20 20 20 20 20 20 20 20 20 20 20 20 20 20 20 20 20 20 20 20 20 20 20 20 20 20 20 20 20 20 20 20 20 20 20 20 20 20 20 20 20
C(CC([N+])C(=O)[O-])ONC(=[N+])N
InChI=1S/C5H12N4O3/c6-3(4(10)11)1-2-12-9-5(7)8/h3H,1-2,6H2,(H,10,11)(H4,7,8,9)/p+1/t3-/m0/s1
