5
metacyc CH4  137.128436872 137.128436872 137.128436872 137.128436872 137.128436872 137.128436872 137.128436872 137.128436872 137.128436872 137.128436872 137.128436872 137.128436872 137.128436872 137.128436872 137.128436872
C          0.92649        0.04070        0.05421
H          2.01869        0.04070        0.05421
H          0.56242       -0.62545        0.83945
H          0.56242       -0.30626       -0.91531
H          0.56242        1.05381        0.23850
5 5 5 5 5 5 5 5 5 5
C
InChI=1S/CH4/h1H4
