17
metacyc COUMARIN  164.25011648 164.25011648 164.25011648 164.25011648 164.25011648 164.25011648 164.25011648 164.25011648 164.25011648 164.25011648 164.25011648 164.25011648 164.25011648 164.25011648 164.25011648
C          2.42666       -0.71755        0.04799
O          1.20759       -1.38077        0.06185
C         -0.00704       -0.66854        0.03293
C         -1.18454       -1.41338        0.01919
C         -2.40730       -0.74702       -0.02577
C         -2.44112        0.64989       -0.05263
C         -1.25164        1.38584       -0.03147
C         -0.02230        0.72463        0.01090
C          1.24106        1.44329        0.02898
C          2.38724        0.75563        0.04402
O          3.49831       -1.31288        0.04314
H         -1.14823       -2.49863        0.03863
H         -3.33456       -1.31366       -0.04234
H         -3.39731        1.16669       -0.09159
H         -1.29927        2.47149       -0.05276
H          1.23535        2.52728        0.02771
H          3.35017        1.25126        0.05280
17 17 17 17 17 17 17 17 17 17 17 17 17 17 17 17 17 17 17 17 17 17 17 17 17 17 17 17 17 17 17 17 17 17 17 17 17 17 17 17 17 17 17 17 17 17
C1(OC2(=CC=CC=C(C=C1)2))=O
InChI=1S/C9H6O2/c10-9-6-5-7-3-1-2-4-8(7)11-9/h1-6H
