18
metacyc CPD-18290  170.32630956 170.32630956 170.32630956 170.32630956 170.32630956 170.32630956 170.32630956 170.32630956 170.32630956 170.32630956 170.32630956 170.32630956 170.32630956 170.32630956 170.32630956
C          1.06965        0.08712        0.06033
C          2.56747        0.10404       -0.04650
C          3.26111        1.32094       -0.11919
C          4.65562        1.32692       -0.23220
C          5.36969        2.61716       -0.31524
H          4.74806        3.52728       -0.27913
O          6.58821        2.68182       -0.42076
C          5.36981        0.12656       -0.27126
C          4.68711       -1.08790       -0.20199
C          3.29634       -1.09086       -0.09421
O          2.61442       -2.27320       -0.03617
H          0.66331        1.09925        0.15876
H          0.75622       -0.48050        0.94248
H          0.63292       -0.36427       -0.83628
H          2.70995        2.25784       -0.08960
H          6.45446        0.13605       -0.35826
H          5.25268       -2.01415       -0.23514
H          3.24841       -3.00598       -0.10264
18 18 18 18 18 18 18 18 18 18 18 18 18 18 18 18 18 18 18 18 18 18 18 18 18 18 18 18 18 18 18 18 18 18 18 18 18 18 18 18 18 18 18 18 18 18 18 18 18
CC1(C=C([CH]=O)C=CC=1O)
InChI=1S/C8H8O2/c1-6-4-7(5-9)2-3-8(6)10/h2-5,10H,1H3
