24
metacyc CPD-639  479.59464008 479.59464008 479.59464008 479.59464008 479.59464008 479.59464008 479.59464008 479.59464008 479.59464008 479.59464008 479.59464008 479.59464008 479.59464008 479.59464008 479.59464008
C          2.74683       -0.31010        1.47336
C          2.39507        0.04767        0.03115
C          2.86011        1.48522       -0.29980
N          2.44204        2.00531       -1.70468
C          2.96385        1.10563       -2.82291
C          0.93068        2.11986       -1.82196
C          3.06059        3.39303       -1.88318
O          3.02821       -0.87959       -0.85337
H          2.19366        0.31105        2.18383
H          3.81894       -0.18067        1.65778
H          2.51731       -1.36265        1.67589
H          1.31329       -0.05038       -0.09830
H          3.95517        1.53144       -0.27957
H          2.45801        2.19958        0.42858
H          2.38307        0.18064       -2.84545
H          4.02746        0.91550       -2.65340
H          2.82093        1.62791       -3.77562
H          0.49786        1.11713       -1.84676
H          0.69580        2.64784       -2.75030
H          0.55679        2.68034       -0.96063
H          4.14593        3.29835       -1.80647
H          2.67153        4.05004       -1.09911
H          2.78156        3.77440       -2.87005
H          3.64657       -1.44384       -0.35672
24 24 24 24 24 24 24 24 24 24 24 24 24 24 24 24 24 24 24 24 24 24 24 24 24 24 24 24 24 24 24 24 24 24 24 24 24 24 24 24 24 24 24 24 24 24 24 24 24 24 24 24 24 24 24 24 24 24 24 24 24 24 24 24 24 24 24
CC(C[N+](C)(C)C)O
InChI=1S/C6H16NO/c1-6(8)5-7(2,3)4/h6,8H,5H2,1-4H3/q+1
