19
metacyc CPD-11571  53.736969696 53.736969696 53.736969696 53.736969696 53.736969696 53.736969696 53.736969696 53.736969696 53.736969696 53.736969696 53.736969696 53.736969696 53.736969696 53.736969696 53.736969696
C          0.91981        0.00647        0.05140
C          0.42581        0.18062       -1.38539
N         -1.04017        0.18915       -1.42168
O         -1.38085        0.39947       -2.81986
C          2.45240       -0.04839        0.08422
C          3.03122       -0.20599        1.49179
N          2.62682       -1.48611        2.08541
C          4.58111       -0.17757        1.49418
O          5.15867       -0.57889        0.44137
O          5.10262        0.30245        2.54505
H          0.50124       -0.91557        0.47188
H          0.56701        0.83816        0.67351
H          0.79707       -0.64660       -2.00321
H          0.81741        1.11598       -1.80307
H         -1.37706        1.04678       -0.97630
H         -1.82614       -0.44274       -3.03479
H          2.85019        0.87369       -0.35985
H          2.79147       -0.87084       -0.56068
H          2.66612        0.60829        2.12899
19 19 19 19 19 19 19 19 19 19 19 19 19 19 19 19 19 19 19 19 19 19 19 19 19 19 19 19 19 19 19 19 19 19 19 19 19 19 19 19 19 19 19 19 19 19 19 19 19 19 19 19
C(CNO)CC([N+])C([O-])=O
InChI=1S/C5H12N2O3/c6-4(5(8)9)2-1-3-7-10/h4,7,10H,1-3,6H2,(H,8,9)/t4-/m0/s1
