19
metacyc CPD-19536  656.10814424 656.10814424 656.10814424 656.10814424 656.10814424 656.10814424 656.10814424 656.10814424 656.10814424 656.10814424 656.10814424 656.10814424 656.10814424 656.10814424 656.10814424
C         -1.23015       -0.76559       -0.52235
C         -1.23519        0.76979       -0.50843
C          0.01903        1.11339        0.31717
C          1.26819        0.77787       -0.52731
C          1.27336       -0.76512       -0.51342
C          0.01684       -1.11244        0.30774
C          0.01041       -0.00572        1.36209
N          2.48182        1.29620        0.09319
H         -1.18442       -1.16819       -1.53914
H         -2.13766       -1.14940       -0.04281
H         -2.14023        1.13862       -0.01242
H         -1.20416        1.19152       -1.51800
H          0.00279        2.13000        0.71763
H          1.19268        1.17033       -1.54649
H          2.16797       -1.16946       -0.02394
H          1.23642       -1.17874       -1.52697
H          0.01512       -2.13349        0.69410
H          0.89602       -0.01543        2.00539
H         -0.89160       -0.00795        1.98335
19 19 19 19 19 19 19 19 19 19 19 19 19 19 19 19 19 19 19 19 19 19 19 19 19 19 19 19 19 19 19 19 19 19 19 19 19 19 19 19 19 19 19 19 19 19 19 19 19 19 19 19
C1(CC2(C(CC1C2)[N+]))
InChI=1S/C7H13N/c8-7-4-5-1-2-6(7)3-5/h5-7H,1-4,8H2/p+1
