18
metacyc CPD-6405  75.223474928 75.223474928 75.223474928 75.223474928 75.223474928 75.223474928 75.223474928 75.223474928 75.223474928 75.223474928 75.223474928 75.223474928 75.223474928 75.223474928 75.223474928
C          2.39771       -0.71107       -0.08667
C          2.39375        0.68500       -0.07282
C          1.18499        1.38007       -0.02628
C         -0.01954        0.68113       -0.00105
O         -1.16185        1.43070        0.07632
C         -2.34085        0.71048       -0.25914
C         -2.41958       -0.77204        0.09730
N         -1.21382       -1.41976        0.11600
C         -0.01292       -0.71774        0.01018
C          1.19360       -1.41612       -0.03779
O         -3.47675       -1.37330        0.26881
H          3.34157       -1.24985       -0.12479
H          3.33305        1.23180       -0.09411
H          1.18234        2.46718       -0.00602
H         -2.49928        0.79719       -1.34181
H         -3.17600        1.21418        0.23836
H         -1.22673       -2.42043        0.25761
H          1.21113       -2.50219       -0.03692
18 18 18 18 18 18 18 18 18 18 18 18 18 18 18 18 18 18 18 18 18 18 18 18 18 18 18 18 18 18 18 18 18 18 18 18 18 18 18 18 18 18 18 18 18 18 18 18 18
C1(C=CC2(OCC(NC(C=1)=2)=O))
InChI=1S/C8H7NO2/c10-8-5-11-7-4-2-1-3-6(7)9-8/h1-4H,5H2,(H,9,10)
