18
metacyc CPD-18279  170.32630956 170.32630956 170.32630956 170.32630956 170.32630956 170.32630956 170.32630956 170.32630956 170.32630956 170.32630956 170.32630956 170.32630956 170.32630956 170.32630956 170.32630956
C          0.92548        0.05922       -0.03194
C          2.42565        0.08843       -0.02974
C          3.12603        1.30229       -0.03023
C          4.52039        1.30022       -0.02804
C          5.23850        0.11058       -0.02536
C          4.54420       -1.09877       -0.02510
C          5.30241       -2.36493       -0.02232
O          4.74778       -3.45698       -0.02234
C          3.14483       -1.11500       -0.02738
O          5.23101        2.46435       -0.02847
H          0.50399        1.06976       -0.03133
H          0.55732       -0.45856        0.85957
H          0.55988       -0.45666       -0.92559
H          2.57700        2.23987       -0.03224
H          6.32389        0.14092       -0.02356
H          6.40216       -2.28077       -0.02020
H          2.61669       -2.06765       -0.02723
H          4.60908        3.21113       -0.03106
18 18 18 18 18 18 18 18 18 18 18 18 18 18 18 18 18 18 18 18 18 18 18 18 18 18 18 18 18 18 18 18 18 18 18 18 18 18 18 18 18 18 18 18 18 18 18 18 18
CC1(=CC(=CC(C=O)=C1)O)
InChI=1S/C8H8O2/c1-6-2-7(5-9)4-8(10)3-6/h2-5,10H,1H3
