31
metacyc CPD-11640  793.4552244 793.4552244 793.4552244 793.4552244 793.4552244 793.4552244 793.4552244 793.4552244 793.4552244 793.4552244 793.4552244 793.4552244 793.4552244 793.4552244 793.4552244
C          2.46842       -0.47362       -1.98016
C          2.44528       -0.38003       -0.43974
C          3.04733        0.97344       -0.00787
C          0.96402       -0.39705       -0.00833
N          3.14891       -1.49840        0.18214
C          4.46795       -1.82739       -0.06606
O          5.13769       -1.29451       -0.95439
C          5.05099       -2.98286        0.79118
C          4.81623       -2.79056        2.31086
N          3.49110       -3.26336        2.74911
C          3.40692       -4.68562        2.38394
C          3.45103       -4.85392        0.85775
N          4.66050       -4.30670        0.23053
H          1.88519        0.33304       -2.44144
H          2.05051       -1.42743       -2.31897
H          3.48064       -0.39520       -2.38795
H          2.54311        1.81310       -0.50429
H          4.11176        1.04249       -0.25296
H          2.94937        1.12257        1.07340
H          0.40585        0.43596       -0.45697
H          0.86298       -0.31475        1.07906
H          0.47473       -1.32718       -0.31740
H          2.81154       -1.90989        1.06735
H          6.13551       -2.90037        0.63831
H          4.94124       -1.73162        2.56783
H          5.61320       -3.32242        2.85087
H          2.47676       -5.12705        2.76107
H          4.21575       -5.27561        2.84087
H          2.56155       -4.39118        0.41453
H          3.40272       -5.92334        0.61912
H          4.48489       -4.18261       -0.76288
31 31 31 31 31 31 31 31 31 31 31 31 31 31 31 31 31 31 31 31 31 31 31 31 31 31 31 31 31 31 31 31 31 31 31 31 31 31 31 31 31 31 31 31 31 31 31 31 31 31 31 31 31 31 31 31 31 31 31 31 31 31 31 31 31 31 31 31 31 31 31 31 31 31 31 31 31 31 31 31 31 31 31 31 31 31 31 31
CC(C)(C)NC(=O)C1(C[N+]CCN1)
InChI=1S/C9H19N3O/c1-9(2,3)12-8(13)7-6-10-4-5-11-7/h7,10-11H,4-6H2,1-3H3,(H,12,13)/p+1/t7-/m0/s1
