24
metacyc CPD-12976  360.55904512 360.55904512 360.55904512 360.55904512 360.55904512 360.55904512 360.55904512 360.55904512 360.55904512 360.55904512 360.55904512 360.55904512 360.55904512 360.55904512 360.55904512
C          1.07394        0.04125        0.10205
C          2.59458       -0.01639        0.07081
C          3.07430       -1.30477       -0.59335
C          4.59877       -1.39478       -0.65045
C          5.05705       -2.66856       -1.34891
O          4.25925       -3.51537       -1.76076
C          6.53803       -2.93184       -1.43558
C          7.31844       -1.95600       -2.27351
O          6.80810       -0.96951       -2.80175
C          8.79238       -2.22693       -2.43062
H          0.73539        0.96676        0.57684
H          0.66213       -0.80202        0.66683
H          0.66065        0.00784       -0.91147
H          2.98022        0.04455        1.09510
H          2.97716        0.85282       -0.47492
H          2.66614       -1.36344       -1.61091
H          2.67776       -2.16866       -0.04532
H          5.01149       -1.39681        0.36372
H          4.99455       -0.52775       -1.18597
H          6.67489       -3.92685       -1.87444
H          6.94574       -2.94602       -0.42026
H          9.07032       -3.15184       -1.91775
H          9.35896       -1.40086       -1.99382
H          9.02908       -2.33166       -3.49241
24 24 24 24 24 24 24 24 24 24 24 24 24 24 24 24 24 24 24 24 24 24 24 24 24 24 24 24 24 24 24 24 24 24 24 24 24 24 24 24 24 24 24 24 24 24 24 24 24 24 24 24 24 24 24 24 24 24 24 24 24 24 24 24 24 24 24
CCCCC(=O)CC(=O)C
InChI=1S/C8H14O2/c1-3-4-5-8(10)6-7(2)9/h3-6H2,1-2H3
