15
metacyc CPD-19081  253.597285904 253.597285904 253.597285904 253.597285904 253.597285904 253.597285904 253.597285904 253.597285904 253.597285904 253.597285904 253.597285904 253.597285904 253.597285904 253.597285904 253.597285904
C          0.90370        0.01180       -0.06926
C          2.42617        0.04007       -0.05286
C          2.97936        1.46181        0.07598
O          2.53569        2.05280        1.29446
C          4.50189        1.47236        0.05448
H          0.54729       -1.01569       -0.19369
H          0.50979        0.61032       -0.89671
H          0.48806        0.40016        0.86577
H          2.80234       -0.42261       -0.97273
H          2.77009       -0.57275        0.78924
H          2.60416        2.08320       -0.74455
H          2.85211        1.49800        2.02788
H          4.91137        0.89368        0.88976
H          4.87760        2.49512        0.16692
H          4.88942        1.05878       -0.88148
15 15 15 15 15 15 15 15 15 15 15 15 15 15 15 15 15 15 15 15 15 15 15 15 15 15 15 15 15 15 15 15 15 15 15 15 15 15 15 15
CCC(O)C
InChI=1S/C4H10O/c1-3-4(2)5/h4-5H,3H2,1-2H3/t4-/m0/s1
