19
metacyc CPD-8824  213.891117536 213.891117536 213.891117536 213.891117536 213.891117536 213.891117536 213.891117536 213.891117536 213.891117536 213.891117536 213.891117536 213.891117536 213.891117536 213.891117536 213.891117536
C          0.91079        0.09525        0.04001
C          2.41140        0.04495        0.06226
C          3.13571        1.29743        0.10795
C          4.47543        1.34342        0.10589
C          5.34443        0.11953        0.05472
C          4.57180       -1.23881        0.11813
O          4.87047       -1.92886        1.33650
C          3.07417       -1.12491        0.06130
O          6.09809        0.21645       -1.15634
H          0.52902        1.12171        0.02913
H          0.49941       -0.39720        0.92808
H          0.52205       -0.40880       -0.85122
H          2.56723        2.22416        0.13308
H          4.98211        2.30453        0.12808
H          6.06507        0.16975        0.87891
H          4.90462       -1.88597       -0.70081
H          4.52602       -1.37622        2.06010
H          2.52475       -2.06280        0.03802
H          5.45389        0.21204       -1.88466
19 19 19 19 19 19 19 19 19 19 19 19 19 19 19 19 19 19 19 19 19 19 19 19 19 19 19 19 19 19 19 19 19 19 19 19 19 19 19 19 19 19 19 19 19 19 19 19 19 19 19 19
CC1(C=CC(C(O)C=1)O)
InChI=1S/C7H10O2/c1-5-2-3-6(8)7(9)4-5/h2-4,6-9H,1H3/t6-,7+/m1/s1
