15
metacyc CPD-19250  261.523447136 261.523447136 261.523447136 261.523447136 261.523447136 261.523447136 261.523447136 261.523447136 261.523447136 261.523447136 261.523447136 261.523447136 261.523447136 261.523447136 261.523447136
C          0.18748        0.55144        1.03340
C         -0.62704       -0.06392        0.00318
C         -1.22924        0.82295       -1.03055
C         -1.95202        0.22671       -2.07491
C         -2.51868        1.01271       -3.08028
C         -2.37086        2.39779       -3.04828
C         -1.66354        3.00047       -2.00932
C         -1.09342        2.21896       -1.00054
O         -0.79689       -1.27773       -0.01149
N          0.83465        1.08551        1.83914
H         -2.07521       -0.85481       -2.11587
H         -3.07302        0.54313       -3.88976
H         -2.80795        3.00928       -3.83458
H         -1.55332        4.08255       -1.98585
H         -0.55049        2.72981       -0.20830
15 15 15 15 15 15 15 15 15 15 15 15 15 15 15 15 15 15 15 15 15 15 15 15 15 15 15 15 15 15 15 15 15 15 15 15 15 15 15 15
C(C(C1(C=CC=CC=1))=O)#N
InChI=1S/C8H5NO/c9-6-8(10)7-4-2-1-3-5-7/h1-5H
