30
metacyc CPD-14202  196.462075592 196.462075592 196.462075592 196.462075592 196.462075592 196.462075592 196.462075592 196.462075592 196.462075592 196.462075592 196.462075592 196.462075592 196.462075592 196.462075592 196.462075592
C          3.14303       -2.70417        2.89491
C          2.62917       -1.36708        2.37922
O          2.94588       -0.33339        3.31732
C          3.15242       -1.01186        0.97389
O          2.64263        0.25695        0.57695
C          4.68264       -0.97625        0.93349
C          5.35215       -1.95389       -0.02908
N          6.79512       -1.78520       -0.04634
C          7.43030       -0.97323        0.87037
N          8.79220       -0.94764        0.94557
C          9.43863       -0.20426        1.86932
N          8.86687        0.57870        2.71729
C          7.48478        0.67254        2.69455
C          6.70142       -0.19771        1.71105
N          5.31169       -0.16832        1.74401
O          6.87637        1.42056        3.45622
N         10.78584       -0.35217        1.84958
H          2.72473       -2.91576        3.88474
H          4.23090       -2.70100        3.01480
H          2.86691       -3.51907        2.21859
H          1.53423       -1.40105        2.33992
H          3.90526       -0.13528        3.24683
H          2.79628       -1.75207        0.24977
H          2.78033        0.84823        1.34608
H          4.95060       -1.79580       -1.03431
H          5.10461       -2.97068        0.29229
H          7.34274       -2.54428       -0.43178
H          9.30103       -1.61924        0.39616
H         11.20857       -0.37514        0.93128
H         11.23588        0.34235        2.44149
30 30 30 30 30 30 30 30 30 30 30 30 30 30 30 30 30 30 30 30 30 30 30 30 30 30 30 30 30 30 30 30 30 30 30 30 30 30 30 30 30 30 30 30 30 30 30 30 30 30 30 30 30 30 30 30 30 30 30 30 30 30 30 30 30 30 30 30 30 30 30 30 30 30 30 30 30 30 30 30 30 30 30 30 30
CC(O)C(O)C2(CNC1(NC(=NC(C=1N=2)=O)N))
InChI=1S/C9H13N5O3/c1-3(15)6(16)4-2-11-7-5(12-4)8(17)14-9(10)13-7/h3,6,15-16H,2H2,1H3,(H4,10,11,13,14,17)/t3-,6-/m0/s1
