15
metacyc CPD-19538  522.29449392 522.29449392 522.29449392 522.29449392 522.29449392 522.29449392 522.29449392 522.29449392 522.29449392 522.29449392 522.29449392 522.29449392 522.29449392 522.29449392 522.29449392
C          0.92102        0.04040        0.09237
C          2.44138        0.04647        0.04848
C          2.96177        0.24135       -1.37895
N          4.42416        0.24143       -1.37822
C          4.95525        0.42463       -2.72107
H          0.57215       -0.10000        1.12022
H          0.51415       -0.77186       -0.51834
H          0.51409        0.98671       -0.27811
H          2.81581       -0.89899        0.46062
H          2.81573        0.84691        0.69896
H          2.56148        1.18414       -1.77401
H          2.56170       -0.56126       -2.01219
H          6.05097        0.42332       -2.71056
H          4.64829        1.37775       -3.16693
H          4.64849       -0.37435       -3.40589
15 15 15 15 15 15 15 15 15 15 15 15 15 15 15 15 15 15 15 15 15 15 15 15 15 15 15 15 15 15 15 15 15 15 15 15 15 15 15 15
CCC[N+]C
InChI=1S/C4H11N/c1-3-4-5-2/h5H,3-4H2,1-2H3/p+1
