16
metacyc CPD-9107  501.53174956 501.53174956 501.53174956 501.53174956 501.53174956 501.53174956 501.53174956 501.53174956 501.53174956 501.53174956 501.53174956 501.53174956 501.53174956 501.53174956 501.53174956
C         -1.34631       -0.04255       -0.01359
C         -0.70874        1.19888       -0.02631
C          0.68877        1.29315       -0.09903
C          1.45852        0.10772       -0.10090
C          0.80419       -1.13076       -0.02709
C         -0.58908       -1.20850       -0.01374
N          2.86000        0.13728        0.04112
N          1.28502        2.56077        0.04870
H         -2.43075       -0.09583        0.03133
H         -1.31303        2.09997        0.03562
H          1.38183       -2.04918        0.03333
H         -1.07864       -2.17747        0.03127
H          3.29004        0.97807       -0.31676
H          3.31813       -0.70604       -0.28581
H          0.70504        3.32399       -0.28136
H          2.23305        2.61183       -0.29504
16 16 16 16 16 16 16 16 16 16 16 16 16 16 16 16 16 16 16 16 16 16 16 16 16 16 16 16 16 16 16 16 16 16 16 16 16 16 16 16 16 16 16
C1(C=C(C(=CC=1)N)N)
InChI=1S/C6H8N2/c7-5-3-1-2-4-6(5)8/h1-4H,7-8H2
