17
metacyc CPD-17686  140.406810072 140.406810072 140.406810072 140.406810072 140.406810072 140.406810072 140.406810072 140.406810072 140.406810072 140.406810072 140.406810072 140.406810072 140.406810072 140.406810072 140.406810072
C          1.52834        1.00771       -0.33225
C          2.39099        0.03268       -0.02048
C          3.18483       -0.02198        1.25733
C          4.69093       -0.04109        0.97750
C          5.51708       -0.06242        2.26090
C          5.33733       -1.30478        3.13787
O          5.05831       -2.37625        2.53333
O          5.50225       -1.09923        4.37439
H          0.97615        0.98084       -1.26506
H          1.35504        1.84226        0.33927
H          2.53451       -0.79860       -0.70764
H          2.88450       -0.92344        1.80261
H          2.93985        0.83464        1.89867
H          4.96651        0.85212        0.40200
H          4.94574       -0.90570        0.35228
H          5.29326        0.83385        2.85273
H          6.58109       -0.01226        1.99848
17 17 17 17 17 17 17 17 17 17 17 17 17 17 17 17 17 17 17 17 17 17 17 17 17 17 17 17 17 17 17 17 17 17 17 17 17 17 17 17 17 17 17 17 17 17
C=CCCCC([O-])=O
InChI=1S/C6H10O2/c1-2-3-4-5-6(7)8/h2H,1,3-5H2,(H,7,8)/p-1
