14
metacyc CPD-18957  161.330705376 161.330705376 161.330705376 161.330705376 161.330705376 161.330705376 161.330705376 161.330705376 161.330705376 161.330705376 161.330705376 161.330705376 161.330705376 161.330705376 161.330705376
C          0.97038        0.07365        0.09489
C          2.48777        0.07358        0.08575
C          3.06073        1.30480        0.78162
O          4.49576        1.25917        0.76132
C          5.07799        1.71922       -0.37478
H          6.17071        1.63182       -0.27426
O          4.51186        2.15797       -1.36235
H          0.58906       -0.81197       -0.42187
H          0.57537        0.95935       -0.41310
H          0.58349        0.06279        1.11916
H          2.84613        0.02432       -0.94879
H          2.86471       -0.83168        0.57692
H          2.75761        1.31502        1.83372
H          2.69406        2.23617        0.33339
14 14 14 14 14 14 14 14 14 14 14 14 14 14 14 14 14 14 14 14 14 14 14 14 14 14 14 14 14 14 14 14 14 14 14 14 14
CCCO[CH]=O
InChI=1S/C4H8O2/c1-2-3-6-4-5/h4H,2-3H2,1H3
