14
metacyc CPD-9023  130.270860872 130.270860872 130.270860872 130.270860872 130.270860872 130.270860872 130.270860872 130.270860872 130.270860872 130.270860872 130.270860872 130.270860872 130.270860872 130.270860872 130.270860872
C          0.97263        1.42490       -0.00473
C         -0.20710        0.71544       -0.00278
C         -0.18628       -0.66911       -0.00381
N         -1.45682       -1.17760       -0.00155
C         -2.24522       -0.12536        0.00079
N         -1.53311        1.04426        0.00019
N          0.94713       -1.39426       -0.00671
C          2.03217       -0.61885       -0.00844
O          3.20600       -1.30753       -0.01151
N          2.12181        0.72146       -0.00766
H          1.04332        2.50446       -0.00411
H         -3.32754       -0.14606        0.00295
H         -1.92452        1.97596        0.00163
H          2.85015       -2.21149       -0.01150
14 14 14 14 14 14 14 14 14 14 14 14 14 14 14 14 14 14 14 14 14 14 14 14 14 14 14 14 14 14 14 14 14 14 14 14 14
C2(C1(=C(N=CN1)N=C(O)N=2))
InChI=1S/C5H4N4O/c10-5-6-1-3-4(9-5)8-2-7-3/h1-2H,(H2,6,7,8,9,10)
