19
metacyc CPD-20118  284.113474 284.113474 284.113474 284.113474 284.113474 284.113474 284.113474 284.113474 284.113474 284.113474 284.113474 284.113474 284.113474 284.113474 284.113474
C          0.98588        0.19329        0.01352
C          2.50903        0.11060       -0.03622
C          3.05278       -1.27845        0.32693
C          2.71540       -1.69713        1.76624
C          3.30243       -3.06441        2.12689
C          4.84938       -3.13138        2.16063
O          5.45124       -2.05599        2.45191
O          5.34258       -4.25339        1.83854
N          2.83923       -3.42903        3.47502
N          2.92924        0.44611       -1.39885
H          0.61664        0.08899        1.03842
H          0.52065       -0.58884       -0.59714
H          0.63160        1.16324       -0.35453
H          2.93020        0.85954        0.64377
H          4.14222       -1.27245        0.19655
H          2.65873       -2.03106       -0.36848
H          1.62537       -1.74598        1.87982
H          3.07151       -0.92568        2.46125
H          2.92818       -3.81684        1.42318
19 19 19 19 19 19 19 19 19 19 19 19 19 19 19 19 19 19 19 19 19 19 19 19 19 19 19 19 19 19 19 19 19 19 19 19 19 19 19 19 19 19 19 19 19 19 19 19 19 19 19 19
CC(CCC(C(=O)[O-])[N+])[N+]
InChI=1S/C6H14N2O2/c1-4(7)2-3-5(8)6(9)10/h4-5H,2-3,7-8H2,1H3,(H,9,10)/p+1/t4-,5+/m0/s1
