16
metacyc CPD-19013  88.496633352 88.496633352 88.496633352 88.496633352 88.496633352 88.496633352 88.496633352 88.496633352 88.496633352 88.496633352 88.496633352 88.496633352 88.496633352 88.496633352 88.496633352
C          0.96499       -0.08871       -0.08037
C          2.49100       -0.02306       -0.04990
O          3.01734       -1.16828       -0.73866
C          2.99679        1.23001       -0.76728
C          3.00103       -0.08829        1.40130
O          4.42834       -0.10569        1.42569
H          0.59336       -0.09259       -1.11131
H          0.51564        0.75957        0.44621
H          0.60541       -1.01523        0.38134
H          2.68459       -1.14089       -1.65364
H          2.63126        1.26076       -1.80023
H          4.09058        1.23692       -0.83127
H          2.67049        2.14281       -0.25889
H          2.66321       -1.00823        1.89070
H          2.65648        0.76741        1.99015
H          4.67903       -0.76892        0.75264
16 16 16 16 16 16 16 16 16 16 16 16 16 16 16 16 16 16 16 16 16 16 16 16 16 16 16 16 16 16 16 16 16 16 16 16 16 16 16 16 16 16 16
CC(O)(C)CO
InChI=1S/C4H10O2/c1-4(2,6)3-5/h5-6H,3H2,1-2H3
