16
metacyc CPD-9335  70.65403648 70.65403648 70.65403648 70.65403648 70.65403648 70.65403648 70.65403648 70.65403648 70.65403648 70.65403648 70.65403648 70.65403648 70.65403648 70.65403648 70.65403648
C          1.37996        0.86225        0.49121
N          2.61972        0.26574        0.05000
C          3.20338        0.85224       -1.06313
N          3.05178        2.15411       -1.28940
C          3.67517        2.59186       -2.37050
O          3.52260        3.92136       -2.61175
N          4.40356        1.90290       -3.22639
C          4.46613        0.63298       -2.88386
O          5.20439       -0.14402       -3.72123
N          3.90031        0.03898       -1.84448
H          0.98964        0.29661        1.34295
H          0.62162        0.84423       -0.29914
H          1.52710        1.89466        0.82789
H          2.59403       -0.73464       -0.12085
H          2.97847        4.16199       -1.84385
H          5.49345        0.53348       -4.35466
16 16 16 16 16 16 16 16 16 16 16 16 16 16 16 16 16 16 16 16 16 16 16 16 16 16 16 16 16 16 16 16 16 16 16 16 16 16 16 16 16 16 16
CNC1(=NC(O)=NC(O)=N1)
InChI=1S/C4H6N4O2/c1-5-2-6-3(9)8-4(10)7-2/h1H3,(H3,5,6,7,8,9,10)
