16
metacyc CPD-12004  94.437913352 94.437913352 94.437913352 94.437913352 94.437913352 94.437913352 94.437913352 94.437913352 94.437913352 94.437913352 94.437913352 94.437913352 94.437913352 94.437913352 94.437913352
C          1.07192       -0.01377       -0.05468
C          2.58995        0.05334        0.02481
C          3.11912        1.23121        0.86857
C          2.70631        1.19202        2.33466
O          4.55118        1.20906        0.83030
O          3.10666       -1.17826        0.54724
H          0.65497        0.91305       -0.46051
H          0.62233       -0.20428        0.92526
H          0.76409       -0.84464       -0.69904
H          2.99815        0.14128       -0.98894
H          2.79483        2.17865        0.42582
H          3.06059        0.27960        2.82545
H          1.62175        1.25990        2.45319
H          3.16187        2.02880        2.87546
H          4.80399        0.26608        0.89134
H          2.56887       -1.42900        1.31833
16 16 16 16 16 16 16 16 16 16 16 16 16 16 16 16 16 16 16 16 16 16 16 16 16 16 16 16 16 16 16 16 16 16 16 16 16 16 16 16 16 16 16
CC(C(C)O)O
InChI=1S/C4H10O2/c1-3(5)4(2)6/h3-6H,1-2H3/t3-,4+
