18
metacyc CPD-18534  11.9852299208 11.9852299208 11.9852299208 11.9852299208 11.9852299208 11.9852299208 11.9852299208 11.9852299208 11.9852299208 11.9852299208 11.9852299208 11.9852299208 11.9852299208 11.9852299208 11.9852299208
C          1.01396        0.02764        0.05643
O          0.45582       -1.12059        0.04457
O          0.39233        1.13748        0.10663
C          2.54169        0.05118        0.00186
C          3.21746       -1.16185       -0.03982
N          4.57259       -1.27213       -0.11501
C          5.25179       -0.11320       -0.15417
C          6.63835       -0.13599       -0.25697
C          7.38583        1.04295       -0.31211
C          6.73491        2.26800       -0.25398
C          5.34392        2.30273       -0.14602
C          4.58969        1.13663       -0.10194
N          3.25275        1.22292       -0.02057
H          2.67462       -2.10289       -0.01904
H          7.14145       -1.09840       -0.30158
H          8.46675        0.99721       -0.40225
H          7.29842        3.19578       -0.29488
H          4.82331        3.25654       -0.10134
18 18 18 18 18 18 18 18 18 18 18 18 18 18 18 18 18 18 18 18 18 18 18 18 18 18 18 18 18 18 18 18 18 18 18 18 18 18 18 18 18 18 18 18 18 18 18 18 18
C([O-])(=O)C1(C=NC2(=CC=CC=C(N=1)2))
InChI=1S/C9H6N2O2/c12-9(13)8-5-10-6-3-1-2-4-7(6)11-8/h1-5H,(H,12,13)/p-1
