15
metacyc CPD-259  276.38600256 276.38600256 276.38600256 276.38600256 276.38600256 276.38600256 276.38600256 276.38600256 276.38600256 276.38600256 276.38600256 276.38600256 276.38600256 276.38600256 276.38600256
C         -0.75880        1.17219       -0.02458
C          0.63686        1.25437       -0.04560
C          1.38828        0.08517       -0.05994
C          0.76641       -1.15579       -0.03094
C         -0.62845       -1.22939       -0.00900
C         -1.40431       -0.06789       -0.06209
N         -2.79530       -0.14234        0.07951
O          2.75070        0.11486       -0.08493
H         -1.34119        2.08853        0.02118
H          1.11075        2.23024       -0.03519
H          1.36223       -2.06342       -0.01150
H         -1.10351       -2.20479        0.04670
H         -3.19159       -1.01220       -0.26297
H         -3.28612        0.66980       -0.28084
H          3.03837        1.04175       -0.11719
15 15 15 15 15 15 15 15 15 15 15 15 15 15 15 15 15 15 15 15 15 15 15 15 15 15 15 15 15 15 15 15 15 15 15 15 15 15 15 15
C1(=CC(=CC=C1N)O)
InChI=1S/C6H7NO/c7-5-1-3-6(8)4-2-5/h1-4,8H,7H2
