20
metacyc CPD-15411  250.79944092 250.79944092 250.79944092 250.79944092 250.79944092 250.79944092 250.79944092 250.79944092 250.79944092 250.79944092 250.79944092 250.79944092 250.79944092 250.79944092 250.79944092
C         -0.89670       -0.80586       -0.08398
N         -1.00968        0.64754        0.08250
C          0.19200        1.17996        0.06637
N          0.37790        2.41419        0.03163
N          1.16249        0.30181        0.09372
C          0.62138       -1.05894        0.04946
H          0.82358       -1.51556        1.02497
C          1.27908       -1.91043       -1.04102
C          1.11172       -1.39798       -2.47634
C          1.56844        0.07155       -2.54227
O          2.65425        0.35162       -1.94604
O          0.64560        0.87241       -2.87832
N          1.92746       -2.18075       -3.40081
H         -1.31003       -1.08762       -1.05428
H         -1.45811       -1.30690        0.71000
H         -1.79779        1.27053       -0.01032
H          2.08886        0.62203       -0.22654
H          0.87145       -2.92761       -0.97894
H          2.34827       -1.99513       -0.80148
H          0.06506       -1.47777       -2.78827
20 20 20 20 20 20 20 20 20 20 20 20 20 20 20 20 20 20 20 20 20 20 20 20 20 20 20 20 20 20 20 20 20 20 20 20 20 20 20 20 20 20 20 20 20 20 20 20 20 20 20 20 20 20 20
C1(NC(=[N+])N[CH]1CC(C(=O)[O-])[N+])
InChI=1S/C6H12N4O2/c7-4(5(11)12)1-3-2-9-6(8)10-3/h3-4H,1-2,7H2,(H,11,12)(H3,8,9,10)/p+1/t3-,4+/m1/s1
