21
metacyc CPD-16630  93.940498512 93.940498512 93.940498512 93.940498512 93.940498512 93.940498512 93.940498512 93.940498512 93.940498512 93.940498512 93.940498512 93.940498512 93.940498512 93.940498512 93.940498512
C          5.50125       -0.62877       -1.87393
O          5.68559        0.38838       -1.15070
O          6.29346       -1.18790       -2.68642
C          4.16186       -1.33404       -1.71601
C          3.03729       -0.35065       -1.41958
C          2.73443        0.61017       -2.56288
C          2.37097        0.15168       -3.83984
C          2.13302        1.05238       -4.88096
C          2.24984        2.41887       -4.64607
O          2.04821        3.32637       -5.64550
C          2.59090        2.89755       -3.38890
C          2.83893        1.99565       -2.35226
N          1.82485       -1.12159       -1.08987
H          4.28018       -2.03502       -0.87905
H          3.95074       -1.93582       -2.60832
H          3.27763        0.22599       -0.51828
H          2.29275       -0.91584       -4.03064
H          1.86975        0.66759       -5.85986
H          2.03977        2.83508       -6.48236
H          2.69675        3.96274       -3.21677
H          3.15298        2.37329       -1.38031
21 21 21 21 21 21 21 21 21 21 21 21 21 21 21 21 21 21 21 21 21 21 21 21 21 21 21 21 21 21 21 21 21 21 21 21 21 21 21 21 21 21 21 21 21 21 21 21 21 21 21 21 21 21 21 21 21 21
C([O-])(=O)CC(C1(C=CC(O)=CC=1))[N+]
InChI=1S/C9H11NO3/c10-8(5-9(12)13)6-1-3-7(11)4-2-6/h1-4,8,11H,5,10H2,(H,12,13)/t8-/m1/s1
