18
metacyc CPD-14590  155.217375112 155.217375112 155.217375112 155.217375112 155.217375112 155.217375112 155.217375112 155.217375112 155.217375112 155.217375112 155.217375112 155.217375112 155.217375112 155.217375112 155.217375112
C         -0.70796        1.12788       -0.03858
C          0.68774        1.17751        0.00485
C          1.41439       -0.00674        0.01903
O          2.77667       -0.00557        0.02928
C          0.76665       -1.23642        0.00942
C         -0.62879       -1.28861       -0.03382
C         -1.38627       -0.10682       -0.07160
C         -2.89961       -0.17695       -0.21908
O         -3.53919        0.40862        0.91812
C         -3.32322        0.51884       -1.50236
N         -3.67464        1.09606       -2.56696
H         -1.25486        2.06775       -0.08092
H          1.18705        2.14252        0.01309
H          3.08947        0.91098       -0.05892
H          1.34949       -2.15356        0.01938
H         -1.11264       -2.26266       -0.06002
H         -3.23162       -1.21980       -0.26955
H         -3.11368        1.26419        1.08911
18 18 18 18 18 18 18 18 18 18 18 18 18 18 18 18 18 18 18 18 18 18 18 18 18 18 18 18 18 18 18 18 18 18 18 18 18 18 18 18 18 18 18 18 18 18 18 18 18
C1(C=C(O)C=CC=1C(O)C#N)
InChI=1S/C8H7NO2/c9-5-8(11)6-1-3-7(10)4-2-6/h1-4,8,10-11H/t8-/m0/s1
