20
metacyc CPD-19757  26.666506432 26.666506432 26.666506432 26.666506432 26.666506432 26.666506432 26.666506432 26.666506432 26.666506432 26.666506432 26.666506432 26.666506432 26.666506432 26.666506432 26.666506432
C          0.93211        0.25289        0.19549
C          2.41175        0.09768       -0.02776
O          2.87140       -0.20838       -1.12363
N          3.15217        0.30612        1.09958
C          4.62611        0.23907        1.19657
C          5.25915        1.40382        0.42224
C          6.78595        1.38621        0.43040
N          7.29489        2.43335       -0.45610
C          5.07824        0.31346        2.69294
O          4.22739        0.85752        3.46408
O          6.20393       -0.19112        2.95396
H          0.46763        0.63350       -0.71896
H          0.72875        0.96620        0.99968
H          0.50053       -0.71790        0.45168
H          2.72539        0.53549        1.99731
H          4.94006       -0.71942        0.76570
H          4.89873        2.35857        0.82858
H          4.91262        1.36754       -0.61914
H          7.16251        0.41828        0.08509
H          7.18261        1.57424        1.43095
20 20 20 20 20 20 20 20 20 20 20 20 20 20 20 20 20 20 20 20 20 20 20 20 20 20 20 20 20 20 20 20 20 20 20 20 20 20 20 20 20 20 20 20 20 20 20 20 20 20 20 20 20 20 20
CC(=O)NC(CC[N+])C(=O)[O-]
InChI=1S/C6H12N2O3/c1-4(9)8-5(2-3-7)6(10)11/h5H,2-3,7H2,1H3,(H,8,9)(H,10,11)/t5-/m0/s1
