18
metacyc CPD-243  111.70794656 111.70794656 111.70794656 111.70794656 111.70794656 111.70794656 111.70794656 111.70794656 111.70794656 111.70794656 111.70794656 111.70794656 111.70794656 111.70794656 111.70794656
C          2.13565       -0.66055        0.00034
C          0.96150       -1.42168        0.00063
C         -0.28381       -0.76550        0.00038
C         -0.31143        0.63109       -0.00027
N         -1.63850        1.01357       -0.00037
C         -2.45572       -0.09003        0.00036
O         -3.78262       -0.01952        0.00064
C         -1.63224       -1.18874        0.00068
O         -2.09525       -2.44949        0.00135
C          0.85415        1.40704       -0.00067
C          2.07961        0.73222       -0.00029
H          3.09913       -1.16414        0.00064
H          1.00349       -2.50691        0.00111
H         -1.94407        1.97458       -0.00089
H         -4.06079        0.91204        0.00085
H         -3.06954       -2.41056        0.00147
H          0.81803        2.49135       -0.00119
H          3.00477        1.30436       -0.00048
18 18 18 18 18 18 18 18 18 18 18 18 18 18 18 18 18 18 18 18 18 18 18 18 18 18 18 18 18 18 18 18 18 18 18 18 18 18 18 18 18 18 18 18 18 18 18 18 18
C2(C=C1(C(NC(O)=C(O)1)=CC=2))
InChI=1S/C8H7NO2/c10-7-5-3-1-2-4-6(5)9-8(7)11/h1-4,9-11H
