16
metacyc CPD-289  178.61062956 178.61062956 178.61062956 178.61062956 178.61062956 178.61062956 178.61062956 178.61062956 178.61062956 178.61062956 178.61062956 178.61062956 178.61062956 178.61062956 178.61062956
C          1.06189        0.93227        0.02809
C          1.37059       -0.37094        0.02808
C          0.33697       -1.46239       -0.03039
C         -1.14912       -0.97137        0.03147
C         -1.32977        0.52037       -0.02823
C         -0.30420        1.38351       -0.02928
O         -1.77133       -1.39820        1.24706
O          0.58222       -2.17673       -1.24521
H          1.84360        1.68720        0.05832
H          2.41175       -0.68119        0.05758
H          0.52369       -2.16258        0.79193
H         -1.71670       -1.42385       -0.78988
H         -2.34998        0.89197       -0.05776
H         -0.48267        2.45534       -0.06100
H         -1.28932       -0.96702        1.97394
H          0.45184       -1.54410       -1.97205
16 16 16 16 16 16 16 16 16 16 16 16 16 16 16 16 16 16 16 16 16 16 16 16 16 16 16 16 16 16 16 16 16 16 16 16 16 16 16 16 16 16 16
C1(=CC(C(C=C1)O)O)
InChI=1S/C6H8O2/c7-5-3-1-2-4-6(5)8/h1-8H/t5-,6-/m1/s1
