19
metacyc CPD-9949  226.893993744 226.893993744 226.893993744 226.893993744 226.893993744 226.893993744 226.893993744 226.893993744 226.893993744 226.893993744 226.893993744 226.893993744 226.893993744 226.893993744 226.893993744
C          1.01928       -0.16986       -0.80735
C          2.48925       -0.02320       -1.08659
O          2.94654        0.89790       -1.75094
C          3.38587       -1.11594       -0.51925
O          2.85014       -2.07557        0.02749
C          4.86346       -1.06022       -0.65071
C          5.57412        0.14332       -0.71223
C          6.96630        0.12781       -0.83607
C          7.65319       -1.08456       -0.89160
C          6.95264       -2.28665       -0.81375
C          5.56285       -2.27569       -0.68627
H          0.47686        0.65743       -1.27330
H          0.84020       -0.14335        0.26962
H          0.65380       -1.10759       -1.23433
H          5.07077        1.10493       -0.65890
H          7.51575        1.06497       -0.88953
H          8.73591       -1.09201       -0.99224
H          7.48724       -3.23259       -0.85268
H          5.02632       -3.22081       -0.62309
19 19 19 19 19 19 19 19 19 19 19 19 19 19 19 19 19 19 19 19 19 19 19 19 19 19 19 19 19 19 19 19 19 19 19 19 19 19 19 19 19 19 19 19 19 19 19 19 19 19 19 19
CC(=O)C(=O)C1(=CC=CC=C1)
InChI=1S/C9H8O2/c1-7(10)9(11)8-5-3-2-4-6-8/h2-6H,1H3
