15
metacyc CPD-19642  112.596452432 112.596452432 112.596452432 112.596452432 112.596452432 112.596452432 112.596452432 112.596452432 112.596452432 112.596452432 112.596452432 112.596452432 112.596452432 112.596452432 112.596452432
C          1.06390        0.14007       -0.06518
N          2.51805        0.13091       -0.06199
C          3.03570       -0.40316       -1.34689
C          4.56386       -0.49609       -1.35518
N          5.03953       -1.43462       -0.32723
C          5.06729       -1.01757       -2.71961
O          4.29234       -1.79123       -3.35604
O          6.20199       -0.57754       -3.07725
H          0.69990        0.50454        0.90092
H          0.64896       -0.86058       -0.22334
H          0.67725        0.81431       -0.83623
H          2.86287       -0.48900        0.67280
H          2.70937        0.25228       -2.16415
H          2.59254       -1.39359       -1.52372
H          4.99877        0.49236       -1.16534
15 15 15 15 15 15 15 15 15 15 15 15 15 15 15 15 15 15 15 15 15 15 15 15 15 15 15 15 15 15 15 15 15 15 15 15 15 15 15 15
CNCC([N+])C([O-])=O
InChI=1S/C4H10N2O2/c1-6-2-3(5)4(7)8/h3,6H,2,5H2,1H3,(H,7,8)/t3-/m0/s1
