15
metacyc CPD-15520  275.21448256 275.21448256 275.21448256 275.21448256 275.21448256 275.21448256 275.21448256 275.21448256 275.21448256 275.21448256 275.21448256 275.21448256 275.21448256 275.21448256 275.21448256
C         -1.62645       -0.64159       -0.30567
C         -0.45815       -1.57606       -0.28627
C          0.60384       -0.75080        0.45214
H          0.82531       -1.13953        1.45445
C          1.82702       -0.12243       -0.25405
C          0.97933        1.15776       -0.32508
O          1.00525        2.17817       -0.97772
N          0.03767        0.63219        0.52782
C         -1.27681        0.56829        0.13714
H         -2.60435       -0.89935       -0.68543
H         -0.14637       -1.82786       -1.30525
H         -0.69757       -2.49324        0.25861
H          2.08976       -0.55265       -1.22227
H          2.72001       -0.01363        0.36830
H         -1.88578        1.46179        0.16280
15 15 15 15 15 15 15 15 15 15 15 15 15 15 15 15 15 15 15 15 15 15 15 15 15 15 15 15 15 15 15 15 15 15 15 15 15 15 15 15
C1(C[CH]2(CC(=O)N(C=1)2))
InChI=1S/C6H7NO/c8-6-4-5-2-1-3-7(5)6/h1,3,5H,2,4H2/t5-/m1/s1
