3
metacyc CPD-12377  42.974370264 42.974370264 42.974370264 42.974370264 42.974370264 42.974370264 42.974370264 42.974370264 42.974370264 42.974370264 42.974370264 42.974370264 42.974370264 42.974370264 42.974370264
O          0.93658       -0.08411       -0.01943
H          1.90447       -0.07001       -0.06367
H          0.65773        0.19764       -0.90364
3 3 3 3
O
InChI=1S/HO/h1H
