15
metacyc CPD-11764  492.83373656 492.83373656 492.83373656 492.83373656 492.83373656 492.83373656 492.83373656 492.83373656 492.83373656 492.83373656 492.83373656 492.83373656 492.83373656 492.83373656 492.83373656
C          0.39007        1.40561       -0.22486
C         -1.03087        1.03111        0.14204
C         -1.30443       -0.42965       -0.04083
N         -0.42573       -1.35880       -0.11183
C          0.99581       -1.07509       -0.09306
C          1.39650        0.36244        0.20715
H          0.63261        2.36643        0.25548
H          0.45715        1.57191       -1.30219
H         -1.73969        1.58931       -0.47833
H         -1.25893        1.27188        1.18459
H         -2.36684       -0.72292       -0.06346
H          1.42158       -1.38285       -1.05524
H          1.46178       -1.72288        0.66142
H          2.35612        0.57165       -0.28528
H          1.58692        0.46491        1.28162
15 15 15 15 15 15 15 15 15 15 15 15 15 15 15 15 15 15 15 15 15 15 15 15 15 15 15 15 15 15 15 15 15 15 15 15 15 15 15 15
C1(CC=NCC1)
InChI=1S/C5H9N/c1-2-4-6-5-3-1/h4H,1-3,5H2
