10
metacyc CPD-19460  144.627169032 144.627169032 144.627169032 144.627169032 144.627169032 144.627169032 144.627169032 144.627169032 144.627169032 144.627169032 144.627169032 144.627169032 144.627169032 144.627169032 144.627169032
C          0.32569        0.96070       -0.19504
C          1.03668       -0.34404        0.15205
C         -0.32209       -0.98957       -0.10325
O         -0.96594        0.30608       -0.17130
H          0.54449        1.36657       -1.18723
H          0.39867        1.74944        0.55809
H          1.38229       -0.41013        1.18719
H          1.83381       -0.64106       -0.53250
H         -0.71368       -1.59852        0.71551
H         -0.41703       -1.52759       -1.05118
10 10 10 10 10 10 10 10 10 10 10 10 10 10 10 10 10 10 10 10 10 10 10 10 10
C1(CCO1)
InChI=1S/C3H6O/c1-2-4-3-1/h1-3H2
