23
metacyc CPD-20338  28.666207392 28.666207392 28.666207392 28.666207392 28.666207392 28.666207392 28.666207392 28.666207392 28.666207392 28.666207392 28.666207392 28.666207392 28.666207392 28.666207392 28.666207392
C          2.87645        1.27153        0.86941
C          2.46622        0.04275        0.04768
C          0.96486       -0.20805        0.22129
C          2.87215        0.15754       -1.44213
N          2.24444        1.32641       -2.09443
C          1.04520        1.31346       -2.74816
O          0.29279        0.34582       -2.83288
C          0.65543        2.65704       -3.30004
C          4.43938        0.22395       -1.55815
O          5.07867       -0.77246       -1.12147
O          4.86716        1.29891       -2.08873
H          2.54957        1.16680        1.90986
H          2.43285        2.19088        0.47338
H          3.96394        1.39526        0.88107
H          2.98322       -0.82418        0.47992
H          0.36679        0.64227       -0.12120
H          0.71964       -0.36919        1.27652
H          0.65145       -1.09893       -0.33264
H          2.54555       -0.73957       -1.98323
H          2.95073        2.02398       -2.33070
H          1.53363        3.27709       -3.50628
H          0.02256        3.16537       -2.56863
H          0.10301        2.52138       -4.23358
23 23 23 23 23 23 23 23 23 23 23 23 23 23 23 23 23 23 23 23 23 23 23 23 23 23 23 23 23 23 23 23 23 23 23 23 23 23 23 23 23 23 23 23 23 23 23 23 23 23 23 23 23 23 23 23 23 23 23 23 23 23 23 23
CC(C)C(NC(=O)C)C(=O)[O-]
InChI=1S/C7H13NO3/c1-4(2)6(7(10)11)8-5(3)9/h4,6H,1-3H3,(H,8,9)(H,10,11)/p-1/t6-/m0/s1
