24
metacyc CPD-21238  225.690746472 225.690746472 225.690746472 225.690746472 225.690746472 225.690746472 225.690746472 225.690746472 225.690746472 225.690746472 225.690746472 225.690746472 225.690746472 225.690746472 225.690746472
C          4.24878        4.97475        0.19679
C          3.97658        3.48622        0.00970
C          4.48798        2.70479        1.22530
N          3.80322        1.52940        1.50712
C          4.13232        0.58026        2.50108
C          5.16579        0.76987        3.42535
C          5.53403       -0.23938        4.31887
C          4.85077       -1.45476        4.30217
C          3.76950       -1.64293        3.43178
C          3.41248       -0.62162        2.54097
N          5.29690       -2.54529        5.17781
O          6.25857       -2.32689        5.92918
O          4.69502       -3.62551        5.10290
O          5.49689        3.08983        1.81550
N          2.54409        3.25484       -0.16991
H          5.32466        5.17753        0.13223
H          3.91420        5.32048        1.18241
H          3.75304        5.58102       -0.56765
H          4.51438        3.11963       -0.87189
H          3.00556        1.32425        0.91215
H          5.72477        1.69817        3.47859
H          6.36495       -0.05861        4.99732
H          3.21582       -2.57953        3.41951
H          2.57529       -0.79327        1.86212
24 24 24 24 24 24 24 24 24 24 24 24 24 24 24 24 24 24 24 24 24 24 24 24 24 24 24 24 24 24 24 24 24 24 24 24 24 24 24 24 24 24 24 24 24 24 24 24 24 24 24 24 24 24 24 24 24 24 24 24 24 24 24 24 24 24 24
CC(C(NC1(C=CC(=CC=1)[N+](=O)[O-]))=O)[N+]
InChI=1S/C9H11N3O3/c1-6(10)9(13)11-7-2-4-8(5-3-7)12(14)15/h2-6H,10H2,1H3,(H,11,13)/p+1/t6-/m0/s1
