27
metacyc CPD-8686  215.872367056 215.872367056 215.872367056 215.872367056 215.872367056 215.872367056 215.872367056 215.872367056 215.872367056 215.872367056 215.872367056 215.872367056 215.872367056 215.872367056 215.872367056
C          5.08612       -0.09807       -3.82917
H          6.07911       -0.43636       -4.17091
O          4.56067        0.91378       -4.28969
C          4.47901       -0.89650       -2.70610
C          5.02572       -0.42616       -1.36324
C          4.63243       -1.34051       -0.19783
C          5.14095       -2.78288       -0.30503
C          6.66735       -2.88440       -0.37624
C          7.17579       -4.31448       -0.59020
C          6.73379       -4.96387       -1.90097
C          7.28133       -4.21202       -3.11450
O          8.47219       -4.48982       -3.42711
O          6.47542       -3.40463       -3.66011
H          4.70451       -1.94377       -2.90379
H          3.39058       -0.79167       -2.74154
H          4.63732        0.58055       -1.16107
H          6.11492       -0.31140       -1.40660
H          3.53836       -1.36324       -0.11915
H          5.00091       -0.89972        0.73617
H          4.67632       -3.25863       -1.17259
H          4.78812       -3.34362        0.56950
H          7.08857       -2.50109        0.56184
H          7.06608       -2.24927       -1.17264
H          6.84559       -4.94135        0.24670
H          8.27237       -4.29470       -0.55169
H          5.64330       -5.04218       -1.96089
H          7.11281       -5.99284       -1.93431
27 27 27 27 27 27 27 27 27 27 27 27 27 27 27 27 27 27 27 27 27 27 27 27 27 27 27 27 27 27 27 27 27 27 27 27 27 27 27 27 27 27 27 27 27 27 27 27 27 27 27 27 27 27 27 27 27 27 27 27 27 27 27 27 27 27 27 27 27 27 27 27 27 27 27 27
[CH](=O)CCCCCCCC(=O)[O-]
InChI=1S/C9H16O3/c10-8-6-4-2-1-3-5-7-9(11)12/h8H,1-7H2,(H,11,12)/p-1
