23
metacyc CPD-8001  127.836358632 127.836358632 127.836358632 127.836358632 127.836358632 127.836358632 127.836358632 127.836358632 127.836358632 127.836358632 127.836358632 127.836358632 127.836358632 127.836358632 127.836358632
C          1.38534        0.21456        0.37157
C          2.88149        0.06421        0.10471
N          3.25631       -1.03716        1.00384
C          2.19659       -2.01436        0.69663
C          2.72423       -2.77436       -0.54379
C          2.80899       -1.81597       -1.76075
C          3.17328       -0.35246       -1.37112
O          1.60385       -1.82061       -2.54894
O          4.06542       -3.21676       -0.23534
C          0.90137       -1.22423        0.46891
O          2.13462       -2.81915        1.83592
H          0.85808        0.80682       -0.38065
H          1.23829        0.70462        1.34502
H          3.40813        0.99858        0.32651
H          2.12975       -3.67097       -0.74989
H          3.58915       -2.18086       -2.44104
H          2.67312        0.34903       -2.05054
H          4.25279       -0.23424       -1.53244
H          1.09227       -2.59587       -2.26783
H          4.33513       -2.48503        0.38892
H          0.18147       -1.34088        1.28552
H          0.37961       -1.52006       -0.44478
H          2.80488       -2.36910        2.38093
23 23 23 23 23 23 23 23 23 23 23 23 23 23 23 23 23 23 23 23 23 23 23 23 23 23 23 23 23 23 23 23 23 23 23 23 23 23 23 23 23 23 23 23 23 23 23 23 23 23 23 23 23 23 23 23 23 23 23 23 23 23 23 23
C2(C1([N+]C(C(C(C1)O)O)(C2)O))
InChI=1S/C7H13NO3/c9-5-3-4-1-2-7(11,8-4)6(5)10/h4-6,8-11H,1-3H2/p+1
