7
metacyc CPD-1772  109.975034176 109.975034176 109.975034176 109.975034176 109.975034176 109.975034176 109.975034176 109.975034176 109.975034176 109.975034176 109.975034176 109.975034176 109.975034176 109.975034176 109.975034176
C          0.95418       -0.05939        0.06212
N          0.44053        1.00896       -0.78075
C          2.45486        0.00130        0.00872
H          2.90170        0.01353       -1.00086
O          3.17242       -0.05653        1.00461
H          0.62733       -1.03105       -0.31634
H          0.61300        0.06704        1.09265
7 7 7 7 7 7 7 7 7 7 7 7 7 7 7 7
C([N+])[CH]=O
InChI=1S/C2H5NO/c3-1-2-4/h2H,1,3H2/p+1
