14
metacyc CPD-12484  162.62777048 162.62777048 162.62777048 162.62777048 162.62777048 162.62777048 162.62777048 162.62777048 162.62777048 162.62777048 162.62777048 162.62777048 162.62777048 162.62777048 162.62777048
C          1.12383        0.05042        0.09462
N          2.55696        0.04014       -0.03702
C          3.14664       -0.05601       -1.26896
O          2.51768       -0.13769       -2.31545
N          4.51164       -0.04965       -1.18742
C          5.35295       -0.14070       -2.35407
H          0.86666        0.13300        1.15272
H          0.71654       -0.87652       -0.31859
H          0.71654        0.90202       -0.45741
H          3.12997        0.10456        0.78834
H          4.94792        0.02094       -0.28300
H          4.76918       -0.21257       -3.27484
H          5.98523       -1.02597       -2.25003
H          5.98523        0.74998       -2.38864
14 14 14 14 14 14 14 14 14 14 14 14 14 14 14 14 14 14 14 14 14 14 14 14 14 14 14 14 14 14 14 14 14 14 14 14 14
CNC(=O)NC
InChI=1S/C3H8N2O/c1-4-3(6)5-2/h1-2H3,(H2,4,5,6)
