28
metacyc CPD-13379  546.50625592 546.50625592 546.50625592 546.50625592 546.50625592 546.50625592 546.50625592 546.50625592 546.50625592 546.50625592 546.50625592 546.50625592 546.50625592 546.50625592 546.50625592
C          1.03906        0.19524        0.24926
C          2.56271        0.06253        0.21542
O          2.94566       -0.12575        1.58494
C          3.08404       -1.10532       -0.71217
C          2.42470       -1.02893       -2.11976
C          2.82858        0.18898       -2.95211
C          2.22822        0.15033       -4.33924
H          2.48316        1.01382       -4.97898
O          1.50908       -0.74589       -4.76359
N          4.58137       -1.18509       -0.80761
C          5.21845       -1.37573        0.50390
C          5.03645       -2.26946       -1.69003
H          0.72711        0.84481        1.07569
H          0.56961       -0.77912        0.42729
H          0.63992        0.61506       -0.67747
H          2.99723        1.01546       -0.10682
H          2.62493       -0.99949        1.86015
H          2.74185       -2.04545       -0.25560
H          1.33270       -1.05104       -2.02098
H          2.64430       -1.94579       -2.68121
H          3.91432        0.24494       -3.07671
H          2.49045        1.11611       -2.47907
H          5.18508       -0.46171        1.10132
H          6.28776       -1.59596        0.39841
H          4.76567       -2.20288        1.06355
H          4.79375       -2.06405       -2.73663
H          4.61118       -3.23799       -1.40539
H          6.12962       -2.35774       -1.66949
28 28 28 28 28 28 28 28 28 28 28 28 28 28 28 28 28 28 28 28 28 28 28 28 28 28 28 28 28 28 28 28 28 28 28 28 28 28 28 28 28 28 28 28 28 28 28 28 28 28 28 28 28 28 28 28 28 28 28 28 28 28 28 28 28 28 28 28 28 28 28 28 28 28 28 28 28 28 28
CC(O)C(CC[CH]=O)[N+](C)C
InChI=1S/C8H17NO2/c1-7(11)8(9(2)3)5-4-6-10/h6-8,11H,4-5H2,1-3H3/p+1/t7-,8+/m1/s1
