23
metacyc CPD-19956  283.15504512 283.15504512 283.15504512 283.15504512 283.15504512 283.15504512 283.15504512 283.15504512 283.15504512 283.15504512 283.15504512 283.15504512 283.15504512 283.15504512 283.15504512
C          1.05623        0.06055       -0.02534
C          2.57642        0.05025       -0.03355
C          3.11873       -0.83892       -1.14790
C          4.64450       -0.83684       -1.17900
O          5.11440       -1.65533       -2.26128
C          5.15132       -1.04140       -3.47881
O          4.83054        0.11882       -3.69270
C          5.64294       -2.01392       -4.52154
C          5.62994       -1.39743       -5.90995
H          0.68548        0.70403        0.77838
H          0.65818       -0.94676        0.13308
H          0.66192        0.44031       -0.97354
H          2.94197       -0.30269        0.93749
H          2.94101        1.07569       -0.16560
H          2.72447       -0.50508       -2.11510
H          2.76298       -1.86916       -1.02188
H          5.03951       -1.27139       -0.25417
H          5.05257        0.17859       -1.25340
H          4.99503       -2.89740       -4.51164
H          6.66384       -2.31348       -4.26329
H          4.61542       -1.09993       -6.19609
H          6.00002       -2.11169       -6.65138
H          6.26236       -0.50406       -5.94834
23 23 23 23 23 23 23 23 23 23 23 23 23 23 23 23 23 23 23 23 23 23 23 23 23 23 23 23 23 23 23 23 23 23 23 23 23 23 23 23 23 23 23 23 23 23 23 23 23 23 23 23 23 23 23 23 23 23 23 23 23 23 23 23
CCCCOC(=O)CC
InChI=1S/C7H14O2/c1-3-5-6-9-7(8)4-2/h3-6H2,1-2H3
