19
metacyc CPD-16609  374.68226264 374.68226264 374.68226264 374.68226264 374.68226264 374.68226264 374.68226264 374.68226264 374.68226264 374.68226264 374.68226264 374.68226264 374.68226264 374.68226264 374.68226264
C          1.04713        0.08666        0.03787
C          2.54007        0.12308       -0.10160
C          3.22767        1.33911       -0.19124
C          4.61563        1.35120       -0.35018
C          5.34383        0.16135       -0.42851
C          6.83304        0.13610       -0.61720
C          4.65113       -1.05299       -0.32701
C          3.26356       -1.07274       -0.16721
O          5.28027        2.54286       -0.43564
H          0.62973        1.09197        0.15778
H          0.76164       -0.49989        0.91662
H          0.59886       -0.36077       -0.85526
H          2.67329        2.27151       -0.14062
H          7.26003        1.13644       -0.73253
H          7.08439       -0.43260       -1.51852
H          7.31257       -0.33418        0.24722
H          5.19314       -1.99480       -0.37805
H          2.74988       -2.02911       -0.09895
H          4.63728        3.26407       -0.34938
19 19 19 19 19 19 19 19 19 19 19 19 19 19 19 19 19 19 19 19 19 19 19 19 19 19 19 19 19 19 19 19 19 19 19 19 19 19 19 19 19 19 19 19 19 19 19 19 19 19 19 19
CC1(=CC(=C(C)C=C1)O)
InChI=1S/C8H10O/c1-6-3-4-7(2)8(9)5-6/h3-5,9H,1-2H3
