8
metacyc CPD-7648  111.066802952 111.066802952 111.066802952 111.066802952 111.066802952 111.066802952 111.066802952 111.066802952 111.066802952 111.066802952 111.066802952 111.066802952 111.066802952 111.066802952 111.066802952
C          0.95995        0.09042        0.04191
O          2.34999        0.23255       -0.24374
N          2.80017       -0.97215       -0.93030
H          0.64361        0.95061        0.63732
H          0.77402       -0.82095        0.61902
H          0.38372        0.07664       -0.88864
H          3.61931       -1.21898       -0.37243
H          3.16535       -0.57855       -1.79977
8 8 8 8 8 8 8 8 8 8 8 8 8 8 8 8 8 8 8
CON
InChI=1S/CH5NO/c1-3-2/h2H2,1H3
