6
metacyc CPD-15163  386.778374 386.778374 386.778374 386.778374 386.778374 386.778374 386.778374 386.778374 386.778374 386.778374 386.778374 386.778374 386.778374 386.778374 386.778374
C          1.18913        0.02321        0.06263
C          2.39029        0.00388        0.05578
C          3.83202       -0.02045        0.04715
O          4.44196       -1.01898       -0.30692
H          0.12357        0.02900        0.06469
H          4.32741        0.90652        0.37585
6 6 6 6 6 6 6 6 6 6 6 6 6
C#CC=O
InChI=1S/C3H2O/c1-2-3-4/h1,3H
