16
metacyc CPD-14064  355.76121048 355.76121048 355.76121048 355.76121048 355.76121048 355.76121048 355.76121048 355.76121048 355.76121048 355.76121048 355.76121048 355.76121048 355.76121048 355.76121048 355.76121048
C         -1.66881       -0.61046       -0.33946
C         -1.44197        0.65367        0.03600
C         -0.03867        0.81441        0.46863
C          0.56251       -0.62621        0.49287
C          1.72163       -0.07115       -0.35084
O          2.81870       -0.49707       -0.65040
C          0.96994        1.24333       -0.63485
C         -0.46613       -1.50312       -0.21981
H         -2.62621       -0.97215       -0.69374
H         -2.17630        1.44850        0.03694
H          0.06949        1.36257        1.41108
H          0.85695       -0.97941        1.48640
H          0.58109        1.29026       -1.65682
H          1.54285        2.14684       -0.41481
H         -0.70465       -2.39103        0.37264
H         -0.12548       -1.81728       -1.21190
16 16 16 16 16 16 16 16 16 16 16 16 16 16 16 16 16 16 16 16 16 16 16 16 16 16 16 16 16 16 16 16 16 16 16 16 16 16 16 16 16 16 16
C2(=CC1(C(C(=O)C1)C2))
InChI=1S/C7H8O/c8-7-4-5-2-1-3-6(5)7/h1-2,5-6H,3-4H2
