22
metacyc CPD-8146  302.81517996 302.81517996 302.81517996 302.81517996 302.81517996 302.81517996 302.81517996 302.81517996 302.81517996 302.81517996 302.81517996 302.81517996 302.81517996 302.81517996 302.81517996
C          0.88891        0.08855       -0.00015
C          2.40905        0.06343       -0.00323
C          2.94723       -1.33293       -0.31520
C          4.47662       -1.34900       -0.31743
C          5.02249       -2.74324       -0.62857
C          6.54536       -2.74181       -0.62714
N          7.02227       -4.12597       -0.94537
O          7.20463       -4.89199        0.00900
O          7.19208       -4.40220       -2.13933
H          0.52719        1.09660        0.22557
H          0.48683       -0.59380        0.75544
H          0.48980       -0.20488       -0.97629
H          2.77586        0.39368        0.97567
H          2.77870        0.77957       -0.74641
H          2.57436       -1.66077       -1.29320
H          2.57276       -2.04612        0.42924
H          4.84846       -1.01987        0.66061
H          4.84964       -0.63519       -1.06206
H          4.64738       -3.07579       -1.60495
H          4.64675       -3.45992        0.11282
H          6.95832       -2.47230        0.35031
H          6.96003       -2.07294       -1.38821
22 22 22 22 22 22 22 22 22 22 22 22 22 22 22 22 22 22 22 22 22 22 22 22 22 22 22 22 22 22 22 22 22 22 22 22 22 22 22 22 22 22 22 22 22 22 22 22 22 22 22 22 22 22 22 22 22 22 22 22 22
CCCCCC[N+](=O)[O-]
InChI=1S/C6H13NO2/c1-2-3-4-5-6-7(8)9/h2-6H2,1H3
