18
metacyc CPD-13135  52.072653992 52.072653992 52.072653992 52.072653992 52.072653992 52.072653992 52.072653992 52.072653992 52.072653992 52.072653992 52.072653992 52.072653992 52.072653992 52.072653992 52.072653992
C          1.06861        0.04635        0.00308
O          0.45800       -1.06834        0.00344
O          0.51914        1.19459        0.00278
C          2.55381        0.02293        0.00308
C          3.36636        1.14185        0.00319
N          4.66316        0.71960        0.00345
C          4.72238       -0.65589        0.00342
C          5.83293       -1.51106        0.00372
C          5.59379       -2.88871        0.00351
C          4.29463       -3.38907        0.00295
C          3.19765       -2.52003        0.00273
C          3.40404       -1.12441        0.00305
H          3.10203        2.19097        0.00318
H          5.46700        1.32789        0.00363
H          6.84429       -1.12137        0.00412
H          6.43317       -3.57823        0.00377
H          4.11965       -4.46078        0.00270
H          2.18201       -2.90920        0.00231
18 18 18 18 18 18 18 18 18 18 18 18 18 18 18 18 18 18 18 18 18 18 18 18 18 18 18 18 18 18 18 18 18 18 18 18 18 18 18 18 18 18 18 18 18 18 18 18 18
C(=O)([O-])C1(=CNC2(C=CC=CC1=2))
InChI=1S/C9H7NO2/c11-9(12)7-5-10-8-4-2-1-3-6(7)8/h1-5,10H,(H,11,12)/p-1
