17
metacyc CPD-14565  282.09498688 282.09498688 282.09498688 282.09498688 282.09498688 282.09498688 282.09498688 282.09498688 282.09498688 282.09498688 282.09498688 282.09498688 282.09498688 282.09498688 282.09498688
C          1.04130       -0.03552        0.16049
C          2.56134       -0.03815        0.04370
N          3.03499        0.92768       -0.96180
O          2.65693        2.24201       -0.45837
C          4.50661        0.93148       -1.00734
C          5.03622        1.90603       -2.05276
H          0.71851       -0.81536        0.85799
H          0.56894       -0.23201       -0.80763
H          0.66752        0.92171        0.53850
H          2.87593       -1.04605       -0.25298
H          2.99946        0.16655        1.02874
H          2.08617        2.56185       -1.18338
H          4.86246       -0.07281       -1.27099
H          4.93196        1.18394       -0.02905
H          4.64751        1.66741       -3.04813
H          6.12892        1.85120       -2.09457
H          4.76503        2.93980       -1.81611
17 17 17 17 17 17 17 17 17 17 17 17 17 17 17 17 17 17 17 17 17 17 17 17 17 17 17 17 17 17 17 17 17 17 17 17 17 17 17 17 17 17 17 17 17 17
CCN(O)CC
InChI=1S/C4H11NO/c1-3-5(6)4-2/h6H,3-4H2,1-2H3
