21
metacyc CPD-16991  260.2592348 260.2592348 260.2592348 260.2592348 260.2592348 260.2592348 260.2592348 260.2592348 260.2592348 260.2592348 260.2592348 260.2592348 260.2592348 260.2592348 260.2592348
C          1.06943       -0.03404        0.01949
C          2.59336        0.04505       -0.01671
C          3.09883        0.59197       -1.34986
C          2.68275       -0.12656       -2.60925
O          3.84323        1.57219       -1.41119
C          3.19207        0.81705        1.16908
C          2.73699        2.26297        1.26770
O          1.54829        2.55089        1.42513
C          3.78717        3.34373        1.25384
H          0.69565       -0.75375       -0.71633
H          0.60297        0.92648       -0.21916
H          0.71885       -0.36168        1.00361
H          2.98441       -0.97926        0.05039
H          2.34688       -1.14134       -2.38221
H          3.54307       -0.20311       -3.28020
H          1.87629        0.42703       -3.09563
H          4.28641        0.78921        1.10891
H          2.92568        0.32842        2.11517
H          4.76260        2.94410        0.96733
H          3.86356        3.77936        2.25314
H          3.50302        4.11059        0.52904
21 21 21 21 21 21 21 21 21 21 21 21 21 21 21 21 21 21 21 21 21 21 21 21 21 21 21 21 21 21 21 21 21 21 21 21 21 21 21 21 21 21 21 21 21 21 21 21 21 21 21 21 21 21 21 21 21 21
CC(C(C)=O)CC(=O)C
InChI=1S/C7H12O2/c1-5(7(3)9)4-6(2)8/h5H,4H2,1-3H3/t5-/m0/s1
