15
metacyc CPD-7398  414.87175832 414.87175832 414.87175832 414.87175832 414.87175832 414.87175832 414.87175832 414.87175832 414.87175832 414.87175832 414.87175832 414.87175832 414.87175832 414.87175832 414.87175832
C         -0.63866        1.10535        0.10529
N          0.67880        1.16985        0.02247
C          1.28271        0.00364       -0.12955
N          2.66215        0.01061       -0.20999
N          0.67337       -1.16916       -0.17916
C         -0.64660       -1.11059       -0.12217
N         -1.34202       -2.30180       -0.19472
N         -1.35415       -0.00413        0.03049
N         -1.32648        2.29621        0.24690
H          3.03617        0.84498        0.21912
H          3.03931       -0.87789        0.08895
H         -0.76017       -3.07128        0.10305
H         -2.24980       -2.20708        0.23924
H         -0.77300        3.05713       -0.12270
H         -2.26438        2.19469       -0.11690
15 15 15 15 15 15 15 15 15 15 15 15 15 15 15 15 15 15 15 15 15 15 15 15 15 15 15 15 15 15 15 15 15 15 15 15 15 15 15 15
C1(=NC(N)=NC(N)=N1)(N)
InChI=1S/C3H6N6/c4-1-7-2(5)9-3(6)8-1/h(H6,4,5,6,7,8,9)
