12
metacyc CPD-19009  423.08177048 423.08177048 423.08177048 423.08177048 423.08177048 423.08177048 423.08177048 423.08177048 423.08177048 423.08177048 423.08177048 423.08177048 423.08177048 423.08177048 423.08177048
C          1.08017       -0.02250       -0.04085
C          2.42244       -0.02249       -0.04086
C          3.21902        1.20753       -0.36764
C          3.21905       -1.25249        0.28592
H          0.51162        0.87164       -0.27840
H          0.51164       -0.91666        0.19670
H          2.57716        2.06508       -0.59547
H          3.85637        1.02666       -1.23924
H          3.85638        1.48309        0.47879
H          2.57720       -2.11005        0.51375
H          3.85640       -1.07161        1.15751
H          3.85640       -1.52805       -0.56052
12 12 12 12 12 12 12 12 12 12 12 12 12 12 12 12 12 12 12 12 12 12 12 12 12 12 12 12 12 12 12
C=C(C)C
InChI=1S/C4H8/c1-4(2)3/h1H2,2-3H3
