19
metacyc CPD-20034  631.90044072 631.90044072 631.90044072 631.90044072 631.90044072 631.90044072 631.90044072 631.90044072 631.90044072 631.90044072 631.90044072 631.90044072 631.90044072 631.90044072 631.90044072
C          2.58356        0.84530       -0.40473
C          1.59671        1.97230       -0.80000
N          2.38575        3.23235       -1.01694
C          3.61352        2.79321       -0.96846
N          3.83789        1.48645       -0.65999
C          5.10426        0.95990       -0.62854
N          6.21419        1.59452       -0.89617
C          6.00738        2.95303       -1.24688
N          6.95377        3.83557       -1.68551
C          6.29005        4.94265       -1.96116
N          4.95371        4.82608       -1.67805
C          4.76494        3.54882       -1.26058
H          2.43384       -0.04488       -1.02060
H          2.47235        0.58442        0.65232
H          0.83223        2.12559       -0.03291
H          1.09602        1.72570       -1.74354
H          5.13580       -0.10602       -0.35186
H          6.71567        5.84779       -2.37412
H          4.23597        5.52445       -1.81466
19 19 19 19 19 19 19 19 19 19 19 19 19 19 19 19 19 19 19 19 19 19 19 19 19 19 19 19 19 19 19 19 19 19 19 19 19 19 19 19 19 19 19 19 19 19 19 19 19 19 19 19
C3(CN=C1(N(C=NC2(N=CNC1=2))3))
InChI=1S/C7H7N5/c1-2-12-4-11-6-5(7(12)8-1)9-3-10-6/h3-4H,1-2H2,(H,9,10)
