23
metacyc CPD-9286  706.33421912 706.33421912 706.33421912 706.33421912 706.33421912 706.33421912 706.33421912 706.33421912 706.33421912 706.33421912 706.33421912 706.33421912 706.33421912 706.33421912 706.33421912
C          0.89232       -0.03614        0.03182
C          2.41268       -0.05558        0.03965
C          2.95065       -1.42431        0.45499
C          4.48001       -1.44577        0.46220
C          5.01118       -2.81831        0.87879
C          6.53918       -2.84719        0.88789
C          7.06572       -4.21198        1.30250
H          0.52715        0.95111       -0.26774
H          0.49209       -0.25935        1.02597
H          0.49429       -0.77382       -0.67238
H          2.77885        0.71390        0.72916
H          2.78103        0.20214       -0.96013
H          2.57624       -2.19046       -0.23486
H          2.57538       -1.67836        1.45385
H          4.85558       -0.68081        1.15267
H          4.85637       -1.19318       -0.53657
H          4.63399       -3.58272        0.18856
H          4.63359       -3.07033        1.87728
H          6.92244       -2.08829        1.57984
H          6.92264       -2.60111       -0.10910
H          6.72587       -4.47432        2.30940
H          8.16028       -4.21220        1.30251
H          6.72587       -4.99005        0.61142
23 23 23 23 23 23 23 23 23 23 23 23 23 23 23 23 23 23 23 23 23 23 23 23 23 23 23 23 23 23 23 23 23 23 23 23 23 23 23 23 23 23 23 23 23 23 23 23 23 23 23 23 23 23 23 23 23 23 23 23 23 23 23 23
CCCCCCC
InChI=1S/C7H16/c1-3-5-7-6-4-2/h3-7H2,1-2H3
