29
metacyc CPD-21089  247.010753608 247.010753608 247.010753608 247.010753608 247.010753608 247.010753608 247.010753608 247.010753608 247.010753608 247.010753608 247.010753608 247.010753608 247.010753608 247.010753608 247.010753608
C          0.79666       -0.00819       -0.07241
C          2.31554       -0.03822       -0.02436
C          2.82189       -0.53532        1.33068
C          4.35392       -0.55783        1.36734
C          4.93655       -0.97865        2.73484
C          4.53755       -2.42101        3.08455
C          6.48323       -0.84008        2.78963
O          7.07044       -1.69533        1.78795
C          7.01506        0.57586        2.58618
C          6.53823        1.57799        3.62986
O          6.36779        1.12888        4.79495
O          6.38573        2.75378        3.19213
H          0.45559        0.33107       -1.05516
H          0.39524        0.67506        0.68250
H          0.37918       -1.00400        0.10779
H          2.70237        0.96802       -0.22321
H          2.68810       -0.69267       -0.82111
H          2.42024       -1.53760        1.51116
H          2.44477        0.11779        2.12712
H          4.70341        0.44968        1.11814
H          4.72478       -1.22613        0.58052
H          4.50319       -0.32964        3.50567
H          4.86105       -3.12742        2.31285
H          3.45414       -2.51960        3.20068
H          4.98647       -2.72739        4.03570
H          6.83641       -1.21963        3.75513
H          7.20904       -1.14341        1.00002
H          6.77699        0.94281        1.58068
H          8.11190        0.55566        2.62675
29 29 29 29 29 29 29 29 29 29 29 29 29 29 29 29 29 29 29 29 29 29 29 29 29 29 29 29 29 29 29 29 29 29 29 29 29 29 29 29 29 29 29 29 29 29 29 29 29 29 29 29 29 29 29 29 29 29 29 29 29 29 29 29 29 29 29 29 29 29 29 29 29 29 29 29 29 29 29 29 29 29
CCCCC(C)C(O)CC([O-])=O
InChI=1S/C9H18O3/c1-3-4-5-7(2)8(10)6-9(11)12/h7-8,10H,3-6H2,1-2H3,(H,11,12)/p-1
