29
metacyc CPD-20065  247.010753608 247.010753608 247.010753608 247.010753608 247.010753608 247.010753608 247.010753608 247.010753608 247.010753608 247.010753608 247.010753608 247.010753608 247.010753608 247.010753608 247.010753608
C          0.99790       -0.04268        0.05881
C          2.51101        0.12916        0.06113
C          3.00669        1.37776       -0.70088
C          2.44662        2.66644       -0.08919
C          4.55496        1.37312       -0.72200
C          5.17018        2.54067       -1.51029
C          6.70677        2.52366       -1.49513
O          7.16201        1.30414       -2.10520
C          7.30030        3.70722       -2.25321
C          6.99923        5.07093       -1.63928
O          6.85367        5.10084       -0.38733
O          6.94281        6.01665       -2.47654
H          0.72908       -1.00080        0.51563
H          0.60146       -0.02944       -0.96100
H          0.50079        0.74144        0.63722
H          2.95314       -0.76582       -0.39446
H          2.86339        0.16036        1.09955
H          2.65001        1.31116       -1.73712
H          2.80955        2.80752        0.93415
H          1.35327        2.66019       -0.06651
H          2.72870        3.54461       -0.67700
H          4.89387        0.42711       -1.16406
H          4.93453        1.39232        0.30722
H          4.82343        3.48662       -1.08896
H          4.81054        2.48505       -2.54551
H          7.06550        2.51163       -0.45980
H          7.40833        1.52344       -3.01961
H          6.95133        3.69200       -3.29429
H          8.39100        3.59893       -2.30219
29 29 29 29 29 29 29 29 29 29 29 29 29 29 29 29 29 29 29 29 29 29 29 29 29 29 29 29 29 29 29 29 29 29 29 29 29 29 29 29 29 29 29 29 29 29 29 29 29 29 29 29 29 29 29 29 29 29 29 29 29 29 29 29 29 29 29 29 29 29 29 29 29 29 29 29 29 29 29 29 29 29
CCC(C)CCC(O)CC(=O)[O-]
InChI=1S/C9H18O3/c1-3-7(2)4-5-8(10)6-9(11)12/h7-8,10H,3-6H2,1-2H3,(H,11,12)/p-1
