22
metacyc CPD-8853  428.953370144 428.953370144 428.953370144 428.953370144 428.953370144 428.953370144 428.953370144 428.953370144 428.953370144 428.953370144 428.953370144 428.953370144 428.953370144 428.953370144 428.953370144
C          2.53440       -0.02483       -0.00299
C          1.66398        1.24813       -0.06331
C          0.24539        0.73966       -0.04466
C         -0.89341        1.44090       -0.02830
C         -2.23612        0.76458        0.02814
C         -2.20491       -0.80612       -0.02858
C         -0.83732       -1.43301       -0.00090
C          0.27984       -0.70316       -0.02107
N          1.57415       -1.10761       -0.03620
O         -2.83594       -1.27210       -1.22701
O         -2.85039        1.20924        1.24234
H          3.12548       -0.05706        0.91809
H          3.21333       -0.08088       -0.85995
H          1.86876        1.80907       -0.98098
H          1.86973        1.89393        0.79734
H         -0.87664        2.52612       -0.03782
H         -2.85244        1.14553       -0.79370
H         -2.78736       -1.20947        0.80782
H         -0.78535       -2.51623        0.01163
H          1.83181       -2.07990        0.06843
H         -2.27683       -0.97705       -1.96750
H         -2.27910        0.90631        1.96857
22 22 22 22 22 22 22 22 22 22 22 22 22 22 22 22 22 22 22 22 22 22 22 22 22 22 22 22 22 22 22 22 22 22 22 22 22 22 22 22 22 22 22 22 22 22 22 22 22 22 22 22 22 22 22 22 22 22 22 22 22
C2(CC1(=CC(C(C=C1N2)O)O))
InChI=1S/C8H11NO2/c10-7-3-5-1-2-9-6(5)4-8(7)11/h3-4,7-11H,1-2H2
