25
metacyc CPD-10087  599.1820628 599.1820628 599.1820628 599.1820628 599.1820628 599.1820628 599.1820628 599.1820628 599.1820628 599.1820628 599.1820628 599.1820628 599.1820628 599.1820628 599.1820628
C          3.37125       -0.55693        0.97066
C          2.40902       -0.14650       -0.13675
C          3.01712        0.84289       -1.15941
C          2.03332        1.21476       -2.29229
O          1.51503        0.05355       -2.93137
C          0.88530        2.10688       -1.81130
C          1.39709        3.35643       -1.10003
C          2.40530        3.02898       -0.00100
C          3.53674        2.14267       -0.52009
H          2.91872       -1.34012        1.58751
H          3.60748        0.28103        1.63214
H          4.30429       -0.95023        0.55512
H          1.50358        0.26749        0.32079
H          2.10381       -1.06119       -0.65785
H          3.86933        0.32445       -1.62097
H          2.59062        1.76161       -3.06357
H          0.90141       -0.38502       -2.31888
H          0.21845        1.54392       -1.14698
H          0.26278        2.39710       -2.66689
H          0.55352        3.91144       -0.67400
H          1.87156        4.01859       -1.83500
H          1.89442        2.53522        0.83358
H          2.82520        3.96030        0.39608
H          4.24607        1.93261        0.28633
H          4.10292        2.70378       -1.27551
25 25 25 25 25 25 25 25 25 25 25 25 25 25 25 25 25 25 25 25 25 25 25 25 25 25 25 25 25 25 25 25 25 25 25 25 25 25 25 25 25 25 25 25 25 25 25 25 25 25 25 25 25 25 25 25 25 25 25 25 25 25 25 25 25 25 25 25 25 25
CCC1(C(O)CCCC1)
InChI=1S/C8H16O/c1-2-7-5-3-4-6-8(7)9/h7-9H,2-6H2,1H3
