28
metacyc CPD-15306  103.27501088 103.27501088 103.27501088 103.27501088 103.27501088 103.27501088 103.27501088 103.27501088 103.27501088 103.27501088 103.27501088 103.27501088 103.27501088 103.27501088 103.27501088
C          2.45282        1.37657        3.51443
C          2.30706        0.54151        2.24900
C          3.09207        1.11061        1.03951
O          2.97059        0.20325       -0.06653
C          2.61788        2.48705        0.61724
C          3.28884        3.62748        1.06418
N          2.90586        4.89246        0.75749
C          1.81946        5.00031       -0.04064
N          1.42081        6.31330       -0.33333
C          0.39102        6.47514       -1.09268
N         -0.29961        5.42469       -1.62778
C          0.00180        4.09992       -1.38194
C          1.15986        3.86657       -0.50021
N          1.51949        2.58761       -0.17847
O         -0.66556        3.19706       -1.87474
N         -0.06048        7.71368       -1.39858
O          2.75546       -0.78458        2.57211
H          1.99329        2.36296        3.40893
H          3.50899        1.50408        3.77647
H          1.97981        0.86809        4.36186
H          1.24545        0.44608        1.99363
H          4.16338        1.13809        1.27039
H          2.02851        0.21931       -0.32578
H          4.16360        3.56012        1.70465
H         -1.11926        5.58782       -2.19137
H          0.60312        8.44580       -1.16463
H         -0.52060        7.85412       -2.28765
H          3.72779       -0.78564        2.59200
28 28 28 28 28 28 28 28 28 28 28 28 28 28 28 28 28 28 28 28 28 28 28 28 28 28 28 28 28 28 28 28 28 28 28 28 28 28 28 28 28 28 28 28 28 28 28 28 28 28 28 28 28 28 28 28 28 28 28 28 28 28 28 28 28 28 28 28 28 28 28 28 28 28 28 28 28 28 28
CC(C(O)C2(=CN=C1(N=C(NC(C1=N2)=O)N)))O
InChI=1S/C9H11N5O3/c1-3(15)6(16)4-2-11-7-5(12-4)8(17)14-9(10)13-7/h2-3,6,15-16H,1H3,(H3,10,11,13,14,17)/t3-,6-/m1/s1
