29
metacyc CPD-15549  58.190795856 58.190795856 58.190795856 58.190795856 58.190795856 58.190795856 58.190795856 58.190795856 58.190795856 58.190795856 58.190795856 58.190795856 58.190795856 58.190795856 58.190795856
C          2.73021       -1.49435       -0.68006
C          2.34596       -0.06485       -0.30778
O          0.91119       -0.01837       -0.27053
C          2.87493        0.39130        1.07386
O          2.34418       -0.51349        2.05345
C          4.42283        0.55525        1.12423
O          4.86936        1.41348        0.05236
C          4.59388        2.80116        0.17814
C          4.96184        0.98235        2.51800
O          4.51281        0.15986        3.59586
C          5.08512       -1.14223        3.66109
C          6.48278        1.11561        2.52881
H          6.87182        1.91349        3.18585
O          7.25490        0.35849        1.94612
H          2.28534       -1.76315       -1.64443
H          2.34134       -2.21951        0.04313
H          3.81283       -1.62071       -0.75672
H          2.67045        0.62194       -1.09562
H          0.65744       -0.39345        0.59653
H          2.40412        1.35435        1.30180
H          2.91596       -1.29876        2.08467
H          4.85325       -0.42337        0.89813
H          4.72450        3.26426       -0.80452
H          5.30816        3.26687        0.86378
H          3.57284        2.99627        0.51333
H          4.58337        1.98747        2.73193
H          4.33157       -1.81657        4.07724
H          5.94569       -1.13047        4.33468
H          5.38309       -1.53011        2.68378
29 29 29 29 29 29 29 29 29 29 29 29 29 29 29 29 29 29 29 29 29 29 29 29 29 29 29 29 29 29 29 29 29 29 29 29 29 29 29 29 29 29 29 29 29 29 29 29 29 29 29 29 29 29 29 29 29 29 29 29 29 29 29 29 29 29 29 29 29 29 29 29 29 29 29 29 29 29 29 29 29 29
CC(O)C(O)C(OC)C(OC)[CH]=O
InChI=1S/C8H16O5/c1-5(10)7(11)8(13-3)6(4-9)12-2/h4-8,10-11H,1-3H3/t5-,6+,7-,8+/m1/s1
