17
metacyc CPD-16174  276.89226656 276.89226656 276.89226656 276.89226656 276.89226656 276.89226656 276.89226656 276.89226656 276.89226656 276.89226656 276.89226656 276.89226656 276.89226656 276.89226656 276.89226656
C          2.14617       -0.70076       -0.08243
C          0.94026       -1.40664       -0.04807
C         -0.24378       -0.66029       -0.00763
C         -0.25575        0.73553        0.00219
C         -1.61874        1.14152        0.04649
C         -2.39523        0.00543        0.05927
N         -1.55572       -1.07659        0.02793
C          0.97106        1.42826       -0.03159
C          2.15517        0.68846       -0.07590
O          3.37074        1.31058       -0.11669
H          3.08739       -1.24343       -0.11624
H          0.93107       -2.49134       -0.05424
H         -1.98919        2.15799        0.06464
H         -3.46849       -0.12621        0.08756
H         -1.84936       -2.04351        0.02869
H          0.97759        2.51202       -0.02353
H          3.22284        2.27023       -0.13045
17 17 17 17 17 17 17 17 17 17 17 17 17 17 17 17 17 17 17 17 17 17 17 17 17 17 17 17 17 17 17 17 17 17 17 17 17 17 17 17 17 17 17 17 17 17
C2(C=C1(C(C=CN1)=CC(O)=2))
InChI=1S/C8H7NO/c10-7-1-2-8-6(5-7)3-4-9-8/h1-5,9-10H
