22
metacyc CPD-20282  220.71650184 220.71650184 220.71650184 220.71650184 220.71650184 220.71650184 220.71650184 220.71650184 220.71650184 220.71650184 220.71650184 220.71650184 220.71650184 220.71650184 220.71650184
C          0.92044        0.05902        0.12697
C          2.45005        0.07236        0.06930
C          2.93761        1.47689       -0.29085
C          3.03144       -0.43179        1.40475
C          4.56147       -0.50078        1.41178
C          5.09965       -1.05108        2.72884
C          6.62908       -1.12540        2.81259
O          7.27250       -0.75315        1.79270
O          7.06371       -1.55983        3.91870
H          0.49267        0.38278       -0.82808
H          0.54664        0.72928        0.90862
H          0.54557       -0.94854        0.33478
H          2.76262       -0.61259       -0.72923
H          2.72974        2.18765        0.51673
H          2.44320        1.84062       -1.19776
H          4.01365        1.48758       -0.48742
H          2.63078       -1.43343        1.60873
H          2.69160        0.21454        2.22393
H          4.98155        0.49843        1.25356
H          4.90183       -1.12993        0.58044
H          4.70505       -2.06055        2.89734
H          4.75195       -0.42082        3.55713
22 22 22 22 22 22 22 22 22 22 22 22 22 22 22 22 22 22 22 22 22 22 22 22 22 22 22 22 22 22 22 22 22 22 22 22 22 22 22 22 22 22 22 22 22 22 22 22 22 22 22 22 22 22 22 22 22 22 22 22 22
CC(C)CCCC([O-])=O
InChI=1S/C7H14O2/c1-6(2)4-3-5-7(8)9/h6H,3-5H2,1-2H3,(H,8,9)/p-1
