30
metacyc CPD-14203  196.462075592 196.462075592 196.462075592 196.462075592 196.462075592 196.462075592 196.462075592 196.462075592 196.462075592 196.462075592 196.462075592 196.462075592 196.462075592 196.462075592 196.462075592
C          3.08996       -3.86686       -0.91088
C          2.58460       -2.73639       -0.02563
O          2.89569       -3.01737        1.34295
C          3.12070       -1.35208       -0.43644
O          2.61704       -0.35903        0.45170
C          4.65156       -1.30825       -0.42556
C          5.32300       -0.97949       -1.75659
N          6.76606       -0.87264       -1.61815
C          7.40007       -1.25558       -0.45288
N          8.76148       -1.31054       -0.39311
C          9.40796       -1.72663        0.71857
N          8.83449       -2.06083        1.82249
C          7.45129       -1.99609        1.89044
C          6.66974       -1.58762        0.64149
N          5.27944       -1.59821        0.68279
O          6.84327       -2.27822        2.92254
N         10.75608       -1.78236        0.58082
H          2.66234       -4.82229       -0.58900
H          4.17710       -3.97817       -0.84387
H          2.81850       -3.69854       -1.95771
H          1.48999       -2.71046       -0.07763
H          3.85630       -2.86447        1.47921
H          2.76776       -1.10301       -1.44283
H          2.74833       -0.72098        1.35279
H          4.91907       -0.03610       -2.13644
H          5.07879       -1.77699       -2.46651
H          7.31262       -0.93156       -2.46697
H          9.27088       -1.16577       -1.24837
H         11.17802       -1.00814        0.08575
H         11.20505       -1.93114        1.48047
30 30 30 30 30 30 30 30 30 30 30 30 30 30 30 30 30 30 30 30 30 30 30 30 30 30 30 30 30 30 30 30 30 30 30 30 30 30 30 30 30 30 30 30 30 30 30 30 30 30 30 30 30 30 30 30 30 30 30 30 30 30 30 30 30 30 30 30 30 30 30 30 30 30 30 30 30 30 30 30 30 30 30 30 30
CC(O)C(O)C2(CNC1(NC(=NC(C=1N=2)=O)N))
InChI=1S/C9H13N5O3/c1-3(15)6(16)4-2-11-7-5(12-4)8(17)14-9(10)13-7/h3,6,15-16H,2H2,1H3,(H4,10,11,13,14,17)/t3-,6+/m0/s1
