19
metacyc CPD-19036  461.4259548 461.4259548 461.4259548 461.4259548 461.4259548 461.4259548 461.4259548 461.4259548 461.4259548 461.4259548 461.4259548 461.4259548 461.4259548 461.4259548 461.4259548
C          0.97929        0.08834       -0.00637
C          2.49847        0.08350       -0.05508
C          3.07874       -1.13342        0.66384
C          4.60520       -1.15481        0.57467
C          5.18472       -2.33590        1.28671
O          4.83997       -3.60815        0.72441
C          6.21376       -3.21387        0.62197
H          0.58680        0.96831       -0.52557
H          0.61971        0.11398        1.02707
H          0.56884       -0.80310       -0.49170
H          2.87768        1.00317        0.40532
H          2.82289        0.08703       -1.10214
H          2.67069       -2.05019        0.22019
H          2.76917       -1.12840        1.71661
H          5.01480       -0.24212        1.02150
H          4.91001       -1.15461       -0.47935
H          5.18356       -2.24206        2.36426
H          6.58011       -2.95109       -0.36274
H          6.92938       -3.73434        1.24512
19 19 19 19 19 19 19 19 19 19 19 19 19 19 19 19 19 19 19 19 19 19 19 19 19 19 19 19 19 19 19 19 19 19 19 19 19 19 19 19 19 19 19 19 19 19 19 19 19 19 19 19
CCCCC1(OC1)
InChI=1S/C6H12O/c1-2-3-4-6-5-7-6/h6H,2-5H2,1H3
