28
metacyc CPD-10819  103.27501088 103.27501088 103.27501088 103.27501088 103.27501088 103.27501088 103.27501088 103.27501088 103.27501088 103.27501088 103.27501088 103.27501088 103.27501088 103.27501088 103.27501088
C          5.64021        0.11392        1.69747
C          4.51737       -0.91509        1.66440
C          3.12611       -0.29993        1.36849
O          2.15894       -1.35601        1.27381
C          2.69188        0.70489        2.41695
C          2.92691        2.06720        2.21265
N          2.61025        3.02688        3.11584
C          2.01248        2.59084        4.24921
N          1.67279        3.59921        5.16215
C          1.07528        3.24281        6.25044
N          0.78294        1.94568        6.53984
C          1.09033        0.88441        5.71015
C          1.77301        1.23867        4.45117
N          2.11333        0.25723        3.56319
O          0.80433       -0.26656        6.02109
N          0.71125        4.16967        7.17281
O          4.87381       -1.88513        0.66716
H          5.52153        0.82437        2.51973
H          5.68645        0.66839        0.75353
H          6.60850       -0.38404        1.81654
H          4.48993       -1.45677        2.61686
H          3.13018        0.17275        0.37939
H          2.07620       -1.72896        2.17318
H          3.39853        2.43344        1.30582
H          0.28379        1.70936        7.38233
H          1.14529        5.07539        7.01661
H          0.69278        3.89466        8.14567
H          4.59810       -1.54983       -0.20333
28 28 28 28 28 28 28 28 28 28 28 28 28 28 28 28 28 28 28 28 28 28 28 28 28 28 28 28 28 28 28 28 28 28 28 28 28 28 28 28 28 28 28 28 28 28 28 28 28 28 28 28 28 28 28 28 28 28 28 28 28 28 28 28 28 28 28 28 28 28 28 28 28 28 28 28 28 28 28
CC(C(O)C2(=CN=C1(N=C(NC(C1=N2)=O)N)))O
InChI=1S/C9H11N5O3/c1-3(15)6(16)4-2-11-7-5(12-4)8(17)14-9(10)13-7/h2-3,6,15-16H,1H3,(H3,10,11,13,14,17)/t3-,6-/m0/s1
