31
metacyc CPD-3462  879.3828692 879.3828692 879.3828692 879.3828692 879.3828692 879.3828692 879.3828692 879.3828692 879.3828692 879.3828692 879.3828692 879.3828692 879.3828692 879.3828692 879.3828692
C          0.96794       -0.12196        3.03884
C          2.45781        0.07579        2.98867
O          2.96268        1.13325        2.63072
N          3.15622       -1.03039        3.40800
C          4.60664       -1.09119        3.42485
C          5.16798       -1.57345        2.09184
C          6.69955       -1.66160        2.09404
C          7.28916       -2.58758        3.16765
N          6.78652       -3.94914        3.00120
C          7.27079       -4.83594        4.05270
C          6.75679       -6.25999        3.80480
C          7.25200       -7.20613        4.89230
N          6.76140       -8.56318        4.66714
H          0.46602        0.78918        2.70071
H          0.65814       -0.33239        4.06654
H          0.67691       -0.94861        2.38570
H          2.67341       -1.90613        3.55718
H          4.86608       -1.77389        4.23878
H          5.00178       -0.09905        3.66665
H          4.85758       -0.88931        1.29209
H          4.73318       -2.54778        1.83642
H          7.11357       -0.65559        2.23670
H          7.03011       -1.99644        1.10220
H          7.06236       -2.18314        4.16134
H          8.38242       -2.55416        3.07506
H          6.92882       -4.50470        5.04168
H          8.36778       -4.85790        4.08808
H          7.09510       -6.61230        2.82098
H          5.65864       -6.26001        3.78074
H          6.91024       -6.86729        5.87578
H          8.34666       -7.22561        4.91029
31 31 31 31 31 31 31 31 31 31 31 31 31 31 31 31 31 31 31 31 31 31 31 31 31 31 31 31 31 31 31 31 31 31 31 31 31 31 31 31 31 31 31 31 31 31 31 31 31 31 31 31 31 31 31 31 31 31 31 31 31 31 31 31 31 31 31 31 31 31 31 31 31 31 31 31 31 31 31 31 31 31 31 31 31 31 31 31
CC(=O)NCCCC[N+]CCC[N+]
InChI=1S/C9H21N3O/c1-9(13)12-8-3-2-6-11-7-4-5-10/h11H,2-8,10H2,1H3,(H,12,13)/p+2
