17
metacyc CPD-18144  346.719025824 346.719025824 346.719025824 346.719025824 346.719025824 346.719025824 346.719025824 346.719025824 346.719025824 346.719025824 346.719025824 346.719025824 346.719025824 346.719025824 346.719025824
C         -2.43171       -0.55596        0.06036
C         -1.79607        0.82456        0.04127
O         -2.35676        1.90441       -0.01640
C         -0.35985        0.63472        0.04925
C          0.65985        1.56441       -0.02525
C          1.96469        1.07230       -0.04530
C          2.20442       -0.31288        0.00916
C          1.14377       -1.22670        0.08621
C         -0.15042       -0.73973        0.09391
N         -1.32134       -1.52465        0.22854
H         -2.94628       -0.73405       -0.88879
H         -3.12470       -0.63850        0.90174
H          0.44863        2.62722       -0.06808
H          2.80353        1.76308       -0.10034
H          3.22855       -0.67973       -0.00002
H          1.34038       -2.29187        0.15078
H         -1.33094       -2.30444       -0.42442
17 17 17 17 17 17 17 17 17 17 17 17 17 17 17 17 17 17 17 17 17 17 17 17 17 17 17 17 17 17 17 17 17 17 17 17 17 17 17 17 17 17 17 17 17 17
C2(C(=O)C1(C=CC=CC=1N2))
InChI=1S/C8H7NO/c10-8-5-9-7-4-2-1-3-6(7)8/h1-4,9H,5H2
