18
metacyc CPD-15131  289.10954656 289.10954656 289.10954656 289.10954656 289.10954656 289.10954656 289.10954656 289.10954656 289.10954656 289.10954656 289.10954656 289.10954656 289.10954656 289.10954656 289.10954656
C          2.36546       -0.66455        0.03764
N          1.21966       -1.38011        0.03456
C          0.05342       -0.70838        0.01669
C         -0.00172        0.70323        0.00358
C          1.20849        1.40928        0.01123
C          2.41266        0.71616        0.02706
C         -1.24251        1.36567       -0.01889
C         -2.42997        0.63639       -0.03203
C         -2.36797       -0.75017       -0.01912
O         -3.50080       -1.50980       -0.03474
C         -1.14264       -1.41139        0.00784
H          3.27691       -1.25581        0.04833
H          1.21847        2.49598        0.00306
H          3.36199        1.23922        0.03003
H         -1.28666        2.45221       -0.02875
H         -3.37983        1.16087       -0.05210
H         -4.27365       -0.92325       -0.07764
H         -1.11791       -2.49753        0.01899
18 18 18 18 18 18 18 18 18 18 18 18 18 18 18 18 18 18 18 18 18 18 18 18 18 18 18 18 18 18 18 18 18 18 18 18 18 18 18 18 18 18 18 18 18 18 18 18 18
C1(=NC2(=C(C=C1)C=CC(O)=C2))
InChI=1S/C9H7NO/c11-8-4-3-7-2-1-5-10-9(7)6-8/h1-6,11H
