15
metacyc CPD-15920  355.41661624 355.41661624 355.41661624 355.41661624 355.41661624 355.41661624 355.41661624 355.41661624 355.41661624 355.41661624 355.41661624 355.41661624 355.41661624 355.41661624 355.41661624
C          0.99100       -1.32747       -0.00560
N          2.13526       -0.59497       -0.06755
C          2.04540        0.74766       -0.12359
N          3.23912        1.43844       -0.18523
N          0.91998        1.47984       -0.08596
C         -0.17310        0.70746       -0.03013
N         -1.47360        1.11859       -0.00510
C         -2.25676       -0.00315        0.04215
N         -1.53651       -1.10607        0.05946
C         -0.23256       -0.67368        0.00997
H          1.08915       -2.40426        0.02558
H          3.98170        0.86040        0.18324
H          3.12681        2.36116        0.20854
H         -1.78306        2.07841       -0.02669
H         -3.33808        0.04707        0.05990
15 15 15 15 15 15 15 15 15 15 15 15 15 15 15 15 15 15 15 15 15 15 15 15 15 15 15 15 15 15 15 15 15 15 15 15 15 15 15 15
C1(=NC(N)=NC2(NC=NC1=2))
InChI=1S/C5H5N5/c6-5-7-1-3-4(10-5)9-2-8-3/h1-2H,(H3,6,7,8,9,10)
