21
metacyc CPD-9080  278.1249148 278.1249148 278.1249148 278.1249148 278.1249148 278.1249148 278.1249148 278.1249148 278.1249148 278.1249148 278.1249148 278.1249148 278.1249148 278.1249148 278.1249148
C          1.08328       -0.00585        0.00217
C          2.60363        0.02350        0.03679
C          3.11075        0.99549        1.09993
C          4.63698        1.04075        1.14972
C          5.12835        2.00694        2.20646
O          4.39893        2.67067        2.93211
C          6.64009        2.13381        2.34593
O          7.36803        1.46998        1.61579
C          7.16873        3.07988        3.38616
H          0.73285       -0.70542       -0.76284
H          0.67766        0.98409       -0.23068
H          0.67565       -0.32458        0.96703
H          2.98131        0.31720       -0.94940
H          2.97943       -0.98541        0.24250
H          2.72013        0.70151        2.08236
H          2.72042        2.00032        0.89480
H          5.03124        1.36170        0.17917
H          5.03098        0.04537        1.38294
H          6.36867        3.57932        3.93663
H          7.77596        3.84495        2.89575
H          7.77717        2.51941        4.10042
21 21 21 21 21 21 21 21 21 21 21 21 21 21 21 21 21 21 21 21 21 21 21 21 21 21 21 21 21 21 21 21 21 21 21 21 21 21 21 21 21 21 21 21 21 21 21 21 21 21 21 21 21 21 21 21 21 21
CCCCC(=O)C(=O)C
InChI=1S/C7H12O2/c1-3-4-5-7(9)6(2)8/h3-5H2,1-2H3
