16
metacyc CPD-112  295.55345048 295.55345048 295.55345048 295.55345048 295.55345048 295.55345048 295.55345048 295.55345048 295.55345048 295.55345048 295.55345048 295.55345048 295.55345048 295.55345048 295.55345048
C          0.96897        0.04802        0.10722
C          2.46386        0.03152       -0.00926
C          3.19969        1.22278       -0.04097
C          4.59245        1.19197       -0.14723
C          5.26308       -0.02871       -0.22241
C          4.53145       -1.21137       -0.18778
C          3.14478       -1.19039       -0.07835
O          5.14434       -2.42755       -0.26219
H          0.57502        1.06914        0.07479
H          0.65952       -0.40466        1.05454
H          0.51953       -0.50817       -0.72197
H          2.69289        2.18392        0.01546
H          5.15352        2.12254       -0.17252
H          6.34483       -0.03683       -0.30528
H          2.59763       -2.12949       -0.04995
H          6.09873       -2.28449       -0.36849
16 16 16 16 16 16 16 16 16 16 16 16 16 16 16 16 16 16 16 16 16 16 16 16 16 16 16 16 16 16 16 16 16 16 16 16 16 16 16 16 16 16 16
CC1(=CC=CC(=C1)O)
InChI=1S/C7H8O/c1-6-3-2-4-7(8)5-6/h2-5,8H,1H3
