18
metacyc CPD-6441  139.197341192 139.197341192 139.197341192 139.197341192 139.197341192 139.197341192 139.197341192 139.197341192 139.197341192 139.197341192 139.197341192 139.197341192 139.197341192 139.197341192 139.197341192
C          4.39565        0.54271        1.15194
O          3.76514        1.52630        0.32794
C          3.09907        1.03647       -0.74685
C          2.50015        2.14555       -1.54070
C          1.69666        1.81375       -2.64054
C          1.12813        2.81793       -3.42691
C          1.35901        4.15827       -3.12043
C          2.15487        4.49745       -2.02632
C          2.72425        3.49560       -1.23625
O          2.99153       -0.14113       -1.04950
H          4.47746        0.95296        2.16247
H          5.40213        0.34696        0.77209
H          3.82154       -0.38754        1.20994
H          1.51231        0.77035       -2.89027
H          0.50746        2.55337       -4.27967
H          0.91980        4.93955       -3.73570
H          2.33481        5.54339       -1.78967
H          3.34438        3.78274       -0.39083
18 18 18 18 18 18 18 18 18 18 18 18 18 18 18 18 18 18 18 18 18 18 18 18 18 18 18 18 18 18 18 18 18 18 18 18 18 18 18 18 18 18 18 18 18 18 18 18 18
COC(C1(C=CC=CC=1))=O
InChI=1S/C8H8O2/c1-10-8(9)7-5-3-2-4-6-7/h2-6H,1H3
