21
metacyc CPD-16871  262.969437536 262.969437536 262.969437536 262.969437536 262.969437536 262.969437536 262.969437536 262.969437536 262.969437536 262.969437536 262.969437536 262.969437536 262.969437536 262.969437536 262.969437536
C          1.02464        0.46833       -1.10017
C          2.46740        0.27243       -0.66146
C          3.05216        1.55687       -0.10159
O          2.36257        2.41409        0.44612
C          4.51774        1.78431       -0.23432
C          4.98269        3.10649       -0.26833
C          6.34336        3.37097       -0.43694
C          7.23292        2.30866       -0.55724
O          8.56678        2.51856       -0.74176
C          6.78823        0.99226       -0.49558
C          5.42623        0.72518       -0.33365
H          0.62560       -0.45818       -1.52193
H          0.95362        1.25148       -1.86208
H          0.38992        0.76263       -0.25816
H          3.04729       -0.05025       -1.53237
H          2.52494       -0.50126        0.10986
H          4.28163        3.93433       -0.17566
H          6.68295        4.40118       -0.47340
H          8.72449        3.47441       -0.81833
H          7.50174        0.17620       -0.57650
H          5.10112       -0.30948       -0.27763
21 21 21 21 21 21 21 21 21 21 21 21 21 21 21 21 21 21 21 21 21 21 21 21 21 21 21 21 21 21 21 21 21 21 21 21 21 21 21 21 21 21 21 21 21 21 21 21 21 21 21 21 21 21 21 21 21 21
CCC(=O)C1(C=CC(O)=CC=1)
InChI=1S/C9H10O2/c1-2-9(11)7-3-5-8(10)6-4-7/h3-6,10H,2H2,1H3
