15
metacyc CPD-9111  525.72468356 525.72468356 525.72468356 525.72468356 525.72468356 525.72468356 525.72468356 525.72468356 525.72468356 525.72468356 525.72468356 525.72468356 525.72468356 525.72468356 525.72468356
C          1.39761       -0.07703       -1.00138
C          2.25726        0.08959        0.01150
C          3.03359        1.35157        0.25641
C          4.54054        1.09745        0.20857
C          5.32637        2.37687        0.45034
H          0.85854       -1.01159       -1.12441
H          1.20988        0.70852       -1.72654
H          2.40591       -0.72595        0.71650
H          2.75522        1.74449        1.24160
H          2.76569        2.11914       -0.48002
H          4.82195        0.68272       -0.76708
H          4.82172        0.35599        0.96648
H          5.09702        3.12782       -0.31266
H          6.40126        2.17447        0.41501
H          5.09237        2.80155        1.43185
15 15 15 15 15 15 15 15 15 15 15 15 15 15 15 15 15 15 15 15 15 15 15 15 15 15 15 15 15 15 15 15 15 15 15 15 15 15 15 15
C=CCCC
InChI=1S/C5H10/c1-3-5-4-2/h3H,1,4-5H2,2H3
