15
metacyc CPD-10490  37.01545052 37.01545052 37.01545052 37.01545052 37.01545052 37.01545052 37.01545052 37.01545052 37.01545052 37.01545052 37.01545052 37.01545052 37.01545052 37.01545052 37.01545052
C          0.96986        0.01434       -0.10848
C          2.48654       -0.06547       -0.03706
N          3.00701        1.03506        0.75447
C          4.48925        0.96926        0.84789
C          5.01241        2.03098        1.86853
O          4.45964        1.98108        3.01113
O          5.94341        2.77534        1.45020
H          0.58499       -0.74946       -0.79256
H          0.63811        0.99098       -0.47870
H          0.51732       -0.15265        0.87469
H          2.88722       -0.00852       -1.05580
H          2.77700       -1.03282        0.38716
H          2.67212        1.01689        1.72409
H          4.93884        1.13652       -0.13567
H          4.80650       -0.01170        1.22355
15 15 15 15 15 15 15 15 15 15 15 15 15 15 15 15 15 15 15 15 15 15 15 15 15 15 15 15 15 15 15 15 15 15 15 15 15 15 15 15
CCNCC(=O)[O-]
InChI=1S/C4H9NO2/c1-2-5-3-4(6)7/h5H,2-3H2,1H3,(H,6,7)/p-1
