12
metacyc CPD-9374  241.413210128 241.413210128 241.413210128 241.413210128 241.413210128 241.413210128 241.413210128 241.413210128 241.413210128 241.413210128 241.413210128 241.413210128 241.413210128 241.413210128 241.413210128
C          0.91400       -0.03826       -0.08571
C          2.43780       -0.00010       -0.05807
N          2.90712        0.88825       -1.12242
C          2.98196        0.49191        1.28851
O          2.49310        1.78781        1.62698
H          0.54982       -0.41851       -1.04692
H          0.47485        0.95372        0.06883
H          0.53223       -0.70037        0.69869
H          2.82610       -1.00605       -0.25087
H          4.07687        0.53103        1.28063
H          2.68232       -0.19244        2.08930
H          2.68788        2.36530        0.86574
12 12 12 12 12 12 12 12 12 12 12 12 12 12 12 12 12 12 12 12 12 12 12 12 12 12 12 12 12 12 12
CC([N+])CO
InChI=1S/C3H9NO/c1-3(4)2-5/h3,5H,2,4H2,1H3/p+1/t3-/m0/s1
