21
metacyc CPD-20998  425.53660696 425.53660696 425.53660696 425.53660696 425.53660696 425.53660696 425.53660696 425.53660696 425.53660696 425.53660696 425.53660696 425.53660696 425.53660696 425.53660696 425.53660696
C          0.88237        0.04206        0.03994
C          2.41929        0.03088       -0.00132
C          2.88845       -0.80467       -1.20385
C          2.91384        1.47923       -0.19088
C          3.01077       -0.51460        1.32291
C          2.61588       -1.94385        1.69073
O          3.20876       -2.29625        2.93634
H          0.46802        0.50525       -0.86281
H          0.51508        0.60955        0.90232
H          0.46990       -0.97016        0.10064
H          2.51635       -0.38269       -2.14442
H          2.52806       -1.83659       -1.14771
H          3.98255       -0.83141       -1.26246
H          2.51140        1.91836       -1.11101
H          4.00615        1.52087       -0.25080
H          2.59978        2.11613        0.64431
H          2.72388        0.14466        2.15351
H          4.10771       -0.45792        1.28497
H          2.95113       -2.66697        0.94244
H          1.53365       -2.04179        1.80831
H          4.17365       -2.25625        2.82246
21 21 21 21 21 21 21 21 21 21 21 21 21 21 21 21 21 21 21 21 21 21 21 21 21 21 21 21 21 21 21 21 21 21 21 21 21 21 21 21 21 21 21 21 21 21 21 21 21 21 21 21 21 21 21 21 21 21
CC(C)(C)CCO
InChI=1S/C6H14O/c1-6(2,3)4-5-7/h7H,4-5H2,1-3H3
