20
metacyc CPD-21073  219.493736208 219.493736208 219.493736208 219.493736208 219.493736208 219.493736208 219.493736208 219.493736208 219.493736208 219.493736208 219.493736208 219.493736208 219.493736208 219.493736208 219.493736208
C          2.48336       -1.35373       -0.14539
C          2.25836        0.12872        0.10517
C          3.12054        0.70056        1.24210
C          4.61432        0.67871        0.99093
C          5.54365        0.10502        1.78082
C          5.47239       -0.67808        3.10511
O          4.33575       -0.86041        3.61028
O          6.60887       -1.04606        3.52863
C          5.09761        1.41503       -0.23189
H          1.84066       -1.69515       -0.96373
H          2.23766       -1.94186        0.74414
H          3.51972       -1.56228       -0.42633
H          1.20171        0.28383        0.35770
H          2.42969        0.67937       -0.82655
H          2.84603        0.18438        2.16434
H          2.82524        1.74687        1.39617
H          6.58771        0.19276        1.47123
H          4.28448        1.91924       -0.76137
H          5.57188        0.71885       -0.93157
H          5.82139        2.18867        0.04667
20 20 20 20 20 20 20 20 20 20 20 20 20 20 20 20 20 20 20 20 20 20 20 20 20 20 20 20 20 20 20 20 20 20 20 20 20 20 20 20 20 20 20 20 20 20 20 20 20 20 20 20 20 20 20
CCCC(=CC(=O)[O-])C
InChI=1S/C7H12O2/c1-3-4-6(2)5-7(8)9/h5H,3-4H2,1-2H3,(H,8,9)/p-1/b6-5+
