16
metacyc CPD-13220  293.93104172 293.93104172 293.93104172 293.93104172 293.93104172 293.93104172 293.93104172 293.93104172 293.93104172 293.93104172 293.93104172 293.93104172 293.93104172 293.93104172 293.93104172
C          3.41577       -1.08852       -0.18015
C          2.34737       -0.03914        0.06685
C          2.91424        1.33521        0.38995
C          1.87721        2.41790        0.64542
C          2.48709        3.77036        0.96440
O          4.12251        1.55442        0.43934
H          2.95178       -2.05360       -0.40745
H          4.05499       -1.21552        0.69954
H          4.05517       -0.80970       -1.02392
H          1.71864       -0.35161        0.90722
H          1.71808        0.05531       -0.82437
H          1.25056        2.09528        1.48343
H          1.24971        2.50364       -0.24786
H          3.11181        3.72021        1.86196
H          1.69823        4.50929        1.13826
H          3.11193        4.12630        0.13868
16 16 16 16 16 16 16 16 16 16 16 16 16 16 16 16 16 16 16 16 16 16 16 16 16 16 16 16 16 16 16 16 16 16 16 16 16 16 16 16 16 16 16
CCC(CC)=O
InChI=1S/C5H10O/c1-3-5(6)4-2/h3-4H2,1-2H3
