13
metacyc CPD-12560  0.3866963676 0.3866963676 0.3866963676 0.3866963676 0.3866963676 0.3866963676 0.3866963676 0.3866963676 0.3866963676 0.3866963676 0.3866963676 0.3866963676 0.3866963676 0.3866963676 0.3866963676
C         -0.62999       -1.18590       -0.00972
C         -1.38323       -0.02167        0.00064
C         -0.72917        1.20388        0.01874
C          0.67607        1.25256        0.02425
O          1.26609        2.50006        0.05353
C          1.49541        0.09840        0.00823
O          2.77491        0.09949       -0.00240
C          0.77109       -1.11332       -0.00682
H         -1.11146       -2.15750       -0.01879
H         -2.46565       -0.06809        0.00169
H         -1.31057        2.11720        0.04059
H          0.62571        3.12602       -0.29954
H          1.33859       -2.04395       -0.01756
13 13 13 13 13 13 13 13 13 13 13 13 13 13 13 13 13 13 13 13 13 13 13 13 13 13 13 13 13 13 13 13 13 13
C1(C=CC(O)=C([O-])C=1)
InChI=1S/C6H5O2/c7-5-3-1-2-4-6(5)8/h1-4,7H/p-1
