20
metacyc CPD-10214  68.246048248 68.246048248 68.246048248 68.246048248 68.246048248 68.246048248 68.246048248 68.246048248 68.246048248 68.246048248 68.246048248 68.246048248 68.246048248 68.246048248 68.246048248
C          1.23105        0.09791       -0.02502
C          2.70564        0.12313       -0.03066
C          3.66518        1.10561       -0.03206
O          3.43273        2.43043       -0.02880
C          4.93208        0.46976       -0.03793
O          6.09269        1.17028       -0.04023
C          7.29194        0.42325       -0.04569
C          4.67268       -0.89266       -0.03995
C          5.43794       -2.15779       -0.04493
O          3.31509       -1.09484       -0.03552
H          0.81114        1.10775       -0.02574
H          0.86222       -0.42154        0.86489
H          0.85505       -0.42567       -0.90950
H          2.48009        2.61385       -0.02527
H          8.12680        1.13129       -0.04470
H          7.37973       -0.17840       -0.95574
H          7.38394       -0.18555        0.85917
H          6.51852       -2.02529       -0.05144
H          5.17573       -2.74859       -0.92893
H          5.18607       -2.74916        0.84169
20 20 20 20 20 20 20 20 20 20 20 20 20 20 20 20 20 20 20 20 20 20 20 20 20 20 20 20 20 20 20 20 20 20 20 20 20 20 20 20 20 20 20 20 20 20 20 20 20 20 20 20 20 20 20
CC1(=C(O)C(OC)=C(C)O1)
InChI=1S/C7H10O3/c1-4-6(8)7(9-3)5(2)10-4/h8H,1-3H3
