24
metacyc CPD-11875  291.723647 291.723647 291.723647 291.723647 291.723647 291.723647 291.723647 291.723647 291.723647 291.723647 291.723647 291.723647 291.723647 291.723647 291.723647
C          3.26049       -1.03270        0.55386
O          2.52062        0.18377        0.52930
C          3.11310        1.22489       -0.13873
C          2.65104        2.49795        0.19606
O          1.65885        2.65110        1.12647
C          3.19245        3.63590       -0.38134
C          4.22040        3.50468       -1.31829
C          4.68865        2.23588       -1.70138
C          5.84352        2.14107       -2.68897
O          7.05392        2.12368       -1.92791
C          5.78627        0.92221       -3.63024
N          6.83895        0.98123       -4.64223
C          4.12045        1.09804       -1.10048
H          2.80931       -1.68582        1.30666
H          4.30415       -0.86446        0.84473
H          3.19932       -1.54206       -0.41421
H          1.43087        1.74484        1.40672
H          2.83346        4.61912       -0.09042
H          4.66228        4.40455       -1.74135
H          5.85781        3.05072       -3.30248
H          6.97200        1.43084       -1.25083
H          4.81715        0.87345       -4.13797
H          5.92728       -0.00876       -3.07260
H          4.47046        0.11189       -1.38353
24 24 24 24 24 24 24 24 24 24 24 24 24 24 24 24 24 24 24 24 24 24 24 24 24 24 24 24 24 24 24 24 24 24 24 24 24 24 24 24 24 24 24 24 24 24 24 24 24 24 24 24 24 24 24 24 24 24 24 24 24 24 24 24 24 24 24
COC1(=C(O)C=CC(C(O)C[N+])=C1)
InChI=1S/C9H13NO3/c1-13-9-4-6(8(12)5-10)2-3-7(9)11/h2-4,8,11-12H,5,10H2,1H3/p+1/t8-/m0/s1
