22
metacyc CPD-18149  84.187117536 84.187117536 84.187117536 84.187117536 84.187117536 84.187117536 84.187117536 84.187117536 84.187117536 84.187117536 84.187117536 84.187117536 84.187117536 84.187117536 84.187117536
C          0.87809       -0.13033        0.01081
C          2.37896       -0.02376       -0.05221
C          3.07074        1.20237       -0.05271
O          2.38409        2.38321        0.03219
C          4.46841        1.23788       -0.17657
C          5.27656        2.49286       -0.18843
C          4.82065        3.69983        0.58828
O          6.34208        2.50966       -0.80363
C          5.18052        0.03572       -0.29956
C          4.51625       -1.18749       -0.27261
C          3.13017       -1.20786       -0.14529
O          2.46829       -2.40500       -0.11771
H          0.37373        0.83832       -0.02397
H          0.57627       -0.63175        0.93503
H          0.50766       -0.70176       -0.84676
H          1.59825        2.24874        0.58739
H          4.06083        3.45897        1.33326
H          4.44635        4.45869       -0.10224
H          5.67780        4.09856        1.14100
H          6.26468        0.05152       -0.41070
H          5.09180       -2.10450       -0.35740
H          3.11408       -3.12638       -0.20603
22 22 22 22 22 22 22 22 22 22 22 22 22 22 22 22 22 22 22 22 22 22 22 22 22 22 22 22 22 22 22 22 22 22 22 22 22 22 22 22 22 22 22 22 22 22 22 22 22 22 22 22 22 22 22 22 22 22 22 22 22
CC1(C(O)=C(C(C)=O)C=CC(O)=1)
InChI=1S/C9H10O3/c1-5-8(11)4-3-7(6(2)10)9(5)12/h3-4,11-12H,1-2H3
