15
metacyc CPD-7024  128.769813216 128.769813216 128.769813216 128.769813216 128.769813216 128.769813216 128.769813216 128.769813216 128.769813216 128.769813216 128.769813216 128.769813216 128.769813216 128.769813216 128.769813216
C          1.79256       -0.22302       -0.26523
C          2.04488        1.07016        0.05519
C          2.83832        1.78728       -0.98405
C          4.15562        1.48970       -0.95963
O          4.83681        1.56622        0.25929
C          4.37475        0.24014       -1.78543
O          4.87919        0.23795       -2.89923
C          4.01676       -1.03125       -1.06708
C          2.89654       -1.19723       -0.33379
H          1.17760       -0.38666       -1.15962
H          2.49356        1.25690        1.03790
H          2.31903        1.75631       -1.94779
H          5.31552        0.72969        0.38798
H          4.73549       -1.84038       -1.19004
H          2.71412       -2.14485        0.16758
15 15 15 15 15 15 15 15 15 15 15 15 15 15 15 15 15 15 15 15 15 15 15 15 15 15 15 15 15 15 15 15 15 15 15 15 15 15 15 15
C1(=CC=C(O)C(=O)C=C1)
InChI=1S/C7H6O2/c8-6-4-2-1-3-5-7(6)9/h1-5H,(H,8,9)
