26
metacyc CPD-433  121.393002816 121.393002816 121.393002816 121.393002816 121.393002816 121.393002816 121.393002816 121.393002816 121.393002816 121.393002816 121.393002816 121.393002816 121.393002816 121.393002816 121.393002816
C          2.93740       -0.63770        1.40347
C          2.53423       -0.00107        0.07331
C          1.00773        0.11499       -0.00065
C          3.17580        1.38833       -0.13177
C          4.71505        1.39160       -0.19009
C          5.27638        0.55301       -1.39212
O          4.59164        0.57987       -2.45436
O          6.40584        0.01827       -1.18564
N          5.20447        2.79108       -0.25085
C          5.36263        3.59308        0.84674
C          5.95689        4.94179        0.53881
O          5.04549        3.28552        1.99148
H          2.43398       -1.60052        1.54051
H          2.67238        0.00649        2.24814
H          4.01357       -0.82984        1.44397
H          2.85004       -0.67260       -0.73311
H          0.62873        0.87208        0.69479
H          0.52672       -0.83900        0.24435
H          0.69057        0.39477       -1.01086
H          2.84562        2.05083        0.68011
H          2.77676        1.83589       -1.05287
H          5.11427        0.96946        0.73897
H          5.60716        3.04878       -1.14345
H          6.23667        5.03601       -0.51337
H          6.85139        5.08909        1.15055
H          5.21800        5.71171        0.77410
26 26 26 26 26 26 26 26 26 26 26 26 26 26 26 26 26 26 26 26 26 26 26 26 26 26 26 26 26 26 26 26 26 26 26 26 26 26 26 26 26 26 26 26 26 26 26 26 26 26 26 26 26 26 26 26 26 26 26 26 26 26 26 26 26 26 26 26 26 26 26 26 26
CC(C)CC(C(=O)[O-])NC(C)=O
InChI=1S/C8H15NO3/c1-5(2)4-7(8(11)12)9-6(3)10/h5,7H,4H2,1-3H3,(H,9,10)(H,11,12)/p-1/t7-/m0/s1
