18
metacyc CPD-15921  277.138637216 277.138637216 277.138637216 277.138637216 277.138637216 277.138637216 277.138637216 277.138637216 277.138637216 277.138637216 277.138637216 277.138637216 277.138637216 277.138637216 277.138637216
C         -2.28278       -0.00057        0.04289
N         -1.58401       -1.11693        0.00519
C         -0.26731       -0.70629       -0.04669
C          0.94983       -1.39511       -0.12436
N          1.01886       -2.79618       -0.18948
O          2.21314       -3.42994        0.15571
N          2.10164       -0.66520       -0.15740
C          2.03141        0.67820       -0.13711
N          3.23216        1.35722       -0.17956
N          0.91987        1.42595       -0.05057
C         -0.18482        0.67269       -0.01789
N         -1.47693        1.10644        0.03661
H         -3.36257        0.07052        0.07176
H          0.16998       -3.24555        0.15409
H          2.88951       -2.79654       -0.16395
H          3.97706        0.77172        0.17014
H          3.13107        2.27601        0.22769
H         -1.76894        2.07215        0.05157
18 18 18 18 18 18 18 18 18 18 18 18 18 18 18 18 18 18 18 18 18 18 18 18 18 18 18 18 18 18 18 18 18 18 18 18 18 18 18 18 18 18 18 18 18 18 18 18 18
C1(=NC2(C(NO)=NC(N)=NC(N1)=2))
InChI=1S/C5H6N6O/c6-5-9-3-2(7-1-8-3)4(10-5)11-12/h1,12H,(H4,6,7,8,9,10,11)
