16
metacyc CPD-16172  316.34320256 316.34320256 316.34320256 316.34320256 316.34320256 316.34320256 316.34320256 316.34320256 316.34320256 316.34320256 316.34320256 316.34320256 316.34320256 316.34320256 316.34320256
C          0.97902       -0.01264        0.09224
C          0.17591       -0.18539        1.32310
C         -0.08433       -1.46023        1.86131
C         -0.89451       -1.54011        3.00035
C         -1.35787       -0.38536        3.63848
C         -1.05098        0.87081        3.12205
C         -0.29312        0.97387        1.95682
N          0.22848       -2.64408        1.16975
O          1.71758       -0.88740       -0.34917
H          0.89842        0.96744       -0.40859
H         -1.18011       -2.51151        3.39674
H         -1.97159       -0.47191        4.53202
H         -1.41317        1.76721        3.62010
H         -0.06858        1.95879        1.55558
H          1.00875       -2.50371        0.51623
H          0.37110       -3.45197        1.76595
16 16 16 16 16 16 16 16 16 16 16 16 16 16 16 16 16 16 16 16 16 16 16 16 16 16 16 16 16 16 16 16 16 16 16 16 16 16 16 16 16 16 16
C(C1(C(=CC=CC=1)N))=O
InChI=1S/C7H7NO/c8-7-4-2-1-3-6(7)5-9/h1-5H,8H2
