12
metacyc CPD-11636  195.175370072 195.175370072 195.175370072 195.175370072 195.175370072 195.175370072 195.175370072 195.175370072 195.175370072 195.175370072 195.175370072 195.175370072 195.175370072 195.175370072 195.175370072
C          1.05973        0.05982       -0.00293
C          2.57730        0.15059        0.03459
N          3.15710       -0.89353       -0.81138
C          3.08685        1.50104       -0.46869
O          2.36624        2.43848       -0.79990
N          4.44858        1.65422       -0.46389
H          0.71381       -0.91559        0.35590
H          0.66867        0.20969       -1.01579
H          0.61300        0.82877        0.63703
H          2.92717        0.01786        1.06335
H          5.05133        0.84156       -0.46679
H          4.80585        2.50813       -0.87373
12 12 12 12 12 12 12 12 12 12 12 12 12 12 12 12 12 12 12 12 12 12 12 12 12 12 12 12 12 12 12
CC([N+])C(=O)N
InChI=1S/C3H8N2O/c1-2(4)3(5)6/h2H,4H2,1H3,(H2,5,6)/p+1/t2-/m0/s1
