20
metacyc CPD-21077  225.97892784 225.97892784 225.97892784 225.97892784 225.97892784 225.97892784 225.97892784 225.97892784 225.97892784 225.97892784 225.97892784 225.97892784 225.97892784 225.97892784 225.97892784
C          1.20678       -1.08038        0.57558
C          2.12821       -0.07353       -0.09715
C          2.86952       -0.67254       -1.26159
C          4.21097       -0.74367       -1.41710
C          5.16533       -0.22870       -0.35496
C          6.69313       -0.28227       -0.45952
O          7.21575       -0.76068       -1.50161
O          7.28617        0.18645        0.56190
C          4.77951       -1.33213       -2.68084
H          0.68854       -0.60869        1.41741
H          1.76760       -1.93793        0.96164
H          0.44687       -1.45141       -0.12032
H          2.80664        0.33789        0.65607
H          1.52874        0.76583       -0.46885
H          2.23398       -1.05450       -2.05879
H          4.92830       -0.75883        0.57865
H          4.93303        0.83362       -0.19458
H          3.99405       -1.65661       -3.37287
H          5.38917       -2.21385       -2.46141
H          5.37790       -0.58834       -3.21667
20 20 20 20 20 20 20 20 20 20 20 20 20 20 20 20 20 20 20 20 20 20 20 20 20 20 20 20 20 20 20 20 20 20 20 20 20 20 20 20 20 20 20 20 20 20 20 20 20 20 20 20 20 20 20
CCC=C(CC(=O)[O-])C
InChI=1S/C7H12O2/c1-3-4-6(2)5-7(8)9/h4H,3,5H2,1-2H3,(H,8,9)/p-1/b6-4+
