20
metacyc CPD-10094  341.8890748 341.8890748 341.8890748 341.8890748 341.8890748 341.8890748 341.8890748 341.8890748 341.8890748 341.8890748 341.8890748 341.8890748 341.8890748 341.8890748 341.8890748
C          1.54181       -0.34145        0.25359
C          2.87416        0.14039       -0.21250
O          3.59825       -0.82861       -0.97848
C          4.15154       -0.48280        0.29986
C          5.42574        0.29680        0.20572
C          5.24684        1.78793        0.51556
C          3.82483        2.33956        0.34225
C          2.99910        1.55971       -0.68037
H          1.59467       -1.35619        0.66196
H          0.83019       -0.34977       -0.57875
H          1.14688        0.31608        1.03438
H          4.12044       -1.20758        1.10076
H          5.83884        0.19485       -0.80644
H          6.17818       -0.13027        0.87872
H          5.93375        2.35533       -0.12566
H          5.57414        1.98902        1.54327
H          3.87235        3.39854        0.06486
H          3.31654        2.29502        1.31488
H          3.47672        1.60688       -1.66623
H          2.00956        2.01953       -0.78239
20 20 20 20 20 20 20 20 20 20 20 20 20 20 20 20 20 20 20 20 20 20 20 20 20 20 20 20 20 20 20 20 20 20 20 20 20 20 20 20 20 20 20 20 20 20 20 20 20 20 20 20 20 20 20
CC12(OC1CCCC2)
InChI=1S/C7H12O/c1-7-5-3-2-4-6(7)8-7/h6H,2-5H2,1H3
