20
metacyc CPD-8128  43.355934328 43.355934328 43.355934328 43.355934328 43.355934328 43.355934328 43.355934328 43.355934328 43.355934328 43.355934328 43.355934328 43.355934328 43.355934328 43.355934328 43.355934328
C          0.86504       -0.07453        0.07043
C          2.38775       -0.03627        0.13914
C          2.92639        0.97639        1.15849
N          2.43937        0.60305        2.53733
O          2.85549       -0.45444        3.03182
O          1.66503        1.39559        3.08817
C          4.46438        1.05805        1.17784
C          5.02390        2.07318        2.17073
O          5.09534       -0.20602        1.38530
H          0.54224       -0.70891       -0.76132
H          0.45031        0.92693       -0.08498
H          0.43483       -0.48817        0.98744
H          2.76418        0.23794       -0.85457
H          2.75830       -1.04748        0.34672
H          2.51556        1.97121        0.94485
H          4.78661        1.37815        0.17957
H          4.76522        1.82065        3.20376
H          4.65517        3.08030        1.95273
H          6.11874        2.08669        2.12358
H          4.81643       -0.55684        2.25707
20 20 20 20 20 20 20 20 20 20 20 20 20 20 20 20 20 20 20 20 20 20 20 20 20 20 20 20 20 20 20 20 20 20 20 20 20 20 20 20 20 20 20 20 20 20 20 20 20 20 20 20 20 20 20
CCC([N+](=O)[O-])C(C)O
InChI=1S/C5H11NO3/c1-3-5(4(2)7)6(8)9/h4-5,7H,3H2,1-2H3
