14
metacyc CPD-630  485.72635484 485.72635484 485.72635484 485.72635484 485.72635484 485.72635484 485.72635484 485.72635484 485.72635484 485.72635484 485.72635484 485.72635484 485.72635484 485.72635484 485.72635484
C          0.95463        0.04072       -0.06245
C          2.48432        0.00991       -0.10649
C          2.96853       -1.43316       -0.27137
C          2.99141        0.92661       -1.23015
N          4.44712        1.00054       -1.25402
H          0.57649       -0.57783        0.75856
H          0.52203       -0.33428       -0.99630
H          0.59028        1.06140        0.09460
H          2.85601        0.38768        0.85512
H          2.64849       -1.85141       -1.23242
H          2.56636       -2.06947        0.52434
H          4.06040       -1.49647       -0.21977
H          2.59862        1.93987       -1.09144
H          2.63778        0.57150       -2.20446
14 14 14 14 14 14 14 14 14 14 14 14 14 14 14 14 14 14 14 14 14 14 14 14 14 14 14 14 14 14 14 14 14 14 14 14 14
CC(C)C[N+]
InChI=1S/C4H11N/c1-4(2)3-5/h4H,3,5H2,1-2H3/p+1
