22
metacyc CPD-8823  306.6179548 306.6179548 306.6179548 306.6179548 306.6179548 306.6179548 306.6179548 306.6179548 306.6179548 306.6179548 306.6179548 306.6179548 306.6179548 306.6179548 306.6179548
C          3.18939        0.62157        1.14058
C          2.49910        0.05076       -0.09173
C          2.97181       -1.34402       -0.42558
C          4.14646       -1.47563       -1.26440
C          4.59468       -2.66770       -1.68069
C          3.93628       -3.96891       -1.31866
O          3.48729       -4.54393       -2.54936
C          2.75519       -3.84672       -0.30303
O          3.10132       -4.44491        0.94858
C          2.32646       -2.44047        0.01108
H          2.79308        1.61750        1.36484
H          4.26925        0.71475        0.98783
H          3.02083       -0.01116        2.01883
H          2.65592        0.72023       -0.94575
H          1.41583        0.04295        0.08665
H          4.66146       -0.56767       -1.57388
H          5.46522       -2.72228       -2.32718
H          4.69886       -4.64429       -0.91406
H          2.82573       -3.93325       -2.91769
H          1.88798       -4.39656       -0.68528
H          3.83867       -3.92456        1.31044
H          1.44927       -2.34098        0.64499
22 22 22 22 22 22 22 22 22 22 22 22 22 22 22 22 22 22 22 22 22 22 22 22 22 22 22 22 22 22 22 22 22 22 22 22 22 22 22 22 22 22 22 22 22 22 22 22 22 22 22 22 22 22 22 22 22 22 22 22 22
CCC1(C=CC(O)C(O)C=1)
InChI=1S/C8H12O2/c1-2-6-3-4-7(9)8(10)5-6/h3-5,7-10H,2H2,1H3/t7-,8+/m1/s1
