16
metacyc CPD-12010  102.0109408 102.0109408 102.0109408 102.0109408 102.0109408 102.0109408 102.0109408 102.0109408 102.0109408 102.0109408 102.0109408 102.0109408 102.0109408 102.0109408 102.0109408
C          0.89340       -0.08911       -0.10415
C          2.40587       -0.06550        0.03782
C          2.88470        0.11419        1.47911
C          2.44894       -1.00997        2.42546
O          3.00745       -0.78732        3.72014
O          4.32153        0.16877        1.49371
H          0.61529       -0.09917       -1.16281
H          0.43990        0.79342        0.35762
H          0.46364       -0.98271        0.35814
H          2.81219        0.75101       -0.57207
H          2.82761       -0.98545       -0.38580
H          2.54208        1.07669        1.87577
H          2.81672       -1.97988        2.07588
H          1.36193       -1.05800        2.53056
H          3.88850       -0.39172        3.56524
H          4.65409       -0.60904        1.01096
16 16 16 16 16 16 16 16 16 16 16 16 16 16 16 16 16 16 16 16 16 16 16 16 16 16 16 16 16 16 16 16 16 16 16 16 16 16 16 16 16 16 16
CCC(CO)O
InChI=1S/C4H10O2/c1-2-4(6)3-5/h4-6H,2-3H2,1H3
