25
metacyc CPD-11959  369.43460616 369.43460616 369.43460616 369.43460616 369.43460616 369.43460616 369.43460616 369.43460616 369.43460616 369.43460616 369.43460616 369.43460616 369.43460616 369.43460616 369.43460616
C          2.96082        2.74402        0.27387
C          2.43019        1.50507       -0.39523
N          3.31170        0.67551       -1.03785
C          4.76900        0.64808       -1.05975
C          5.34853       -0.02548        0.18461
C          6.87934       -0.01976        0.16398
C          7.45324       -0.70944        1.40467
C          8.97977       -0.70396        1.39424
N          9.48527       -1.36520        2.58994
O          2.74565       -0.51459       -1.55864
O          1.22226        1.24958       -0.38298
H          4.04882        2.78569        0.31545
H          2.58811        2.77279        1.30222
H          2.59682        3.62166       -0.26741
H          5.13548        1.67598       -1.13531
H          5.08420        0.11643       -1.96479
H          4.98419       -1.05839        0.24497
H          4.99068        0.48491        1.08694
H          7.24201        1.01436        0.11736
H          7.23772       -0.52943       -0.73868
H          7.08707       -1.74310        1.44746
H          7.08728       -0.20054        2.30546
H          9.35954        0.32253        1.36719
H          9.35986       -1.22511        0.50968
H          1.78990       -0.38161       -1.37117
25 25 25 25 25 25 25 25 25 25 25 25 25 25 25 25 25 25 25 25 25 25 25 25 25 25 25 25 25 25 25 25 25 25 25 25 25 25 25 25 25 25 25 25 25 25 25 25 25 25 25 25 25 25 25 25 25 25 25 25 25 25 25 25 25 25 25 25 25 25
CC(N(CCCCC[N+])O)=O
InChI=1S/C7H16N2O2/c1-7(10)9(11)6-4-2-3-5-8/h11H,2-6,8H2,1H3/p+1
