16
metacyc CPD-14885  51.566385808 51.566385808 51.566385808 51.566385808 51.566385808 51.566385808 51.566385808 51.566385808 51.566385808 51.566385808 51.566385808 51.566385808 51.566385808 51.566385808 51.566385808
C          0.99461        0.14922        0.14779
O          0.41650       -0.98353        0.17532
O          0.41457        1.28017        0.19970
C          2.50571        0.15096        0.03081
C          3.22418        1.35993       -0.01154
C          4.61236        1.38009       -0.18232
N          5.31405        2.59714       -0.13153
C          5.30665        0.16844       -0.19182
C          4.61768       -1.04423       -0.13721
C          3.22616       -1.05115       -0.03808
H          2.66720        2.29139        0.07556
H          4.72282        3.37614       -0.40855
H          6.18515        2.56499       -0.64777
H          6.39024        0.15991       -0.24346
H          5.15942       -1.98417       -0.16126
H          2.68528       -1.99524        0.00283
16 16 16 16 16 16 16 16 16 16 16 16 16 16 16 16 16 16 16 16 16 16 16 16 16 16 16 16 16 16 16 16 16 16 16 16 16 16 16 16 16 16 16
C(=O)([O-])C1(C=C(N)C=CC=1)
InChI=1S/C7H7NO2/c8-6-3-1-2-5(4-6)7(9)10/h1-4H,8H2,(H,9,10)/p-1
