18
metacyc CPD-12598  334.68786688 334.68786688 334.68786688 334.68786688 334.68786688 334.68786688 334.68786688 334.68786688 334.68786688 334.68786688 334.68786688 334.68786688 334.68786688 334.68786688 334.68786688
C          0.92982       -0.06788       -0.01967
C          2.45001       -0.08480       -0.03203
C          2.99292       -1.33293       -0.72644
C          4.51980       -1.34523       -0.72641
N          5.04176       -2.53207       -1.37009
C          5.26326       -2.58839       -2.72173
H          5.63548       -3.57857       -3.03368
O          5.08381       -1.67752       -3.51599
H          0.56513        0.83515        0.47983
H          0.53212       -0.93599        0.51555
H          0.52883       -0.07802       -1.03815
H          2.81803       -0.04283        0.99974
H          2.81505        0.81347       -0.54345
H          2.61992       -1.37571       -1.75725
H          2.61913       -2.23205       -0.22045
H          4.90385       -1.34166        0.29903
H          4.90835       -0.45905       -1.24057
H          5.17084       -3.37199       -0.82125
18 18 18 18 18 18 18 18 18 18 18 18 18 18 18 18 18 18 18 18 18 18 18 18 18 18 18 18 18 18 18 18 18 18 18 18 18 18 18 18 18 18 18 18 18 18 18 18 18
CCCCN[CH]=O
InChI=1S/C5H11NO/c1-2-3-4-6-5-7/h5H,2-4H2,1H3,(H,6,7)
