21
metacyc CPD-10099  400.38605996 400.38605996 400.38605996 400.38605996 400.38605996 400.38605996 400.38605996 400.38605996 400.38605996 400.38605996 400.38605996 400.38605996 400.38605996 400.38605996 400.38605996
C          0.90409       -0.06951       -0.02230
C          2.42404       -0.08360       -0.02521
C          2.97617       -1.50185       -0.17115
C          4.50499       -1.49840       -0.17106
C          5.07340       -2.90836       -0.31648
C          6.58778       -2.90939       -0.31648
O          7.29088       -1.91240       -0.21319
N          7.14520       -4.14755       -0.44408
H          0.53573        0.95573        0.08321
H          0.50762       -0.66008        0.80971
H          0.50590       -0.47900       -0.95607
H          2.78879        0.36303        0.90720
H          2.78714        0.54307       -0.84823
H          2.60828       -1.94616       -1.10422
H          2.60847       -2.12696        0.65173
H          4.87192       -1.04864        0.76006
H          4.87174       -0.86814       -0.99088
H          4.72954       -3.35635       -1.25588
H          4.72926       -3.53875        0.51152
H          6.60234       -4.99427       -0.53160
H          8.15513       -4.20854       -0.45034
21 21 21 21 21 21 21 21 21 21 21 21 21 21 21 21 21 21 21 21 21 21 21 21 21 21 21 21 21 21 21 21 21 21 21 21 21 21 21 21 21 21 21 21 21 21 21 21 21 21 21 21 21 21 21 21 21 21
CCCCCC(=O)N
InChI=1S/C6H13NO/c1-2-3-4-5-6(7)8/h2-5H2,1H3,(H2,7,8)
