18
metacyc CPD-19537  723.7889048 723.7889048 723.7889048 723.7889048 723.7889048 723.7889048 723.7889048 723.7889048 723.7889048 723.7889048 723.7889048 723.7889048 723.7889048 723.7889048 723.7889048
C          0.73348        1.26201       -0.20684
C         -0.73552        1.26593        0.22599
C         -1.45587        0.00086       -0.24733
H         -1.48965        0.00085       -1.34353
C         -0.73795       -1.26558        0.22608
C          0.73108       -1.26450       -0.20673
C          1.48200       -0.00195        0.23146
H          2.47988       -0.00291       -0.22075
N          1.65049       -0.00203        1.68353
N         -2.82969        0.00219        0.24443
H          1.23251        2.15720        0.18474
H          0.77901        1.33773       -1.30114
H         -1.22768        2.15564       -0.18644
H         -0.79539        1.35350        1.31865
H         -1.23182       -2.15436       -0.18630
H         -0.79801       -1.35294        1.31876
H          0.77648       -1.34043       -1.30100
H          1.22837       -2.16060        0.18497
18 18 18 18 18 18 18 18 18 18 18 18 18 18 18 18 18 18 18 18 18 18 18 18 18 18 18 18 18 18 18 18 18 18 18 18 18 18 18 18 18 18 18 18 18 18 18 18 18
C1(C[CH](CC[CH]1[N+])[N+])
InChI=1S/C6H14N2/c7-5-1-2-6(8)4-3-5/h5-6H,1-4,7-8H2/p+2/t5-,6-
