18
metacyc CPD-674  164.49722352 164.49722352 164.49722352 164.49722352 164.49722352 164.49722352 164.49722352 164.49722352 164.49722352 164.49722352 164.49722352 164.49722352 164.49722352 164.49722352 164.49722352
C          1.05470        0.10202       -0.13089
O          0.48921        0.69976        0.82597
O          0.54810       -0.51675       -1.11014
C          2.58212        0.11127       -0.13371
C          3.30410        0.71897        0.81881
C          4.76422        0.71749        0.78433
C          5.45144        1.74471        0.13078
C          6.84587        1.72576        0.06354
C          7.55812        0.67883        0.64872
C          6.87719       -0.34794        1.30320
C          5.48259       -0.32918        1.36999
H          3.06179       -0.40437       -0.96052
H          2.82075        1.23721        1.64359
H          4.89486        2.55321       -0.33748
H          7.37076        2.52308       -0.45414
H          8.64218        0.65886        0.58779
H          7.42685       -1.16898        1.75361
H          4.95056       -1.13636        1.86789
18 18 18 18 18 18 18 18 18 18 18 18 18 18 18 18 18 18 18 18 18 18 18 18 18 18 18 18 18 18 18 18 18 18 18 18 18 18 18 18 18 18 18 18 18 18 18 18 18
C(=O)([O-])C=CC1(=CC=CC=C1)
InChI=1S/C9H8O2/c10-9(11)7-6-8-4-2-1-3-5-8/h1-7H,(H,10,11)/p-1/b7-6+
