20
metacyc CPD-58  309.66361392 309.66361392 309.66361392 309.66361392 309.66361392 309.66361392 309.66361392 309.66361392 309.66361392 309.66361392 309.66361392 309.66361392 309.66361392 309.66361392 309.66361392
C          1.02653        0.01589       -0.03358
C          0.56403       -0.25568        1.40809
C          0.96194        0.82784        2.39571
C          0.49205        2.14443        2.26422
C          0.89357        3.14076        3.15878
C          1.76972        2.82102        4.18952
C          2.23822        1.52362        4.34649
C          1.83580        0.52737        3.45416
O          2.20568        3.76583        5.07111
O         -0.86214       -0.41527        1.39208
N          2.47698        0.09820       -0.15463
H          0.57424        0.93776       -0.41605
H          0.66186       -0.78604       -0.68607
H          0.97334       -1.21828        1.73619
H         -0.18851        2.40830        1.45625
H          0.51858        4.15145        3.03304
H          2.92381        1.28669        5.15619
H          2.22085       -0.48117        3.58478
H          1.86911        4.63151        4.78806
H         -1.24519        0.18565        2.05250
20 20 20 20 20 20 20 20 20 20 20 20 20 20 20 20 20 20 20 20 20 20 20 20 20 20 20 20 20 20 20 20 20 20 20 20 20 20 20 20 20 20 20 20 20 20 20 20 20 20 20 20 20 20 20
C(C(C1(C=CC(=CC=1)O))O)[N+]
InChI=1S/C8H11NO2/c9-5-8(11)6-1-3-7(10)4-2-6/h1-4,8,10-11H,5,9H2/p+1
