25
metacyc CPD-7301  86.926223344 86.926223344 86.926223344 86.926223344 86.926223344 86.926223344 86.926223344 86.926223344 86.926223344 86.926223344 86.926223344 86.926223344 86.926223344 86.926223344 86.926223344
C          1.92729       -0.53550        0.35014
C          0.52273       -1.14799        0.22868
C         -0.54418       -0.05937        0.02260
C         -0.51628        0.52563       -1.40131
C         -0.69417       -0.57858       -2.44950
C          0.40628       -1.64271       -2.28533
C          0.42152       -2.22953       -0.86808
N          0.17413       -2.72186       -3.24594
O         -2.01181       -1.12981       -2.24820
O         -1.58045        1.48488       -1.51126
O         -0.36689        1.00173        0.96257
O          2.90315       -1.56060        0.48257
H          1.98726        0.10267        1.23794
H          2.18930        0.06498       -0.52492
H          0.32624       -1.64902        1.18637
H         -1.53721       -0.48254        0.22816
H          0.41390        1.07985       -1.57108
H         -0.68602       -0.14593       -3.45593
H          1.38015       -1.19236       -2.50741
H          1.24190       -2.95175       -0.77387
H         -0.50024       -2.80357       -0.69834
H         -1.98845       -2.05202       -2.57130
H         -2.37857        0.95826       -1.72603
H         -0.93128        1.73252        0.63597
H          3.72636       -1.12840        0.77215
25 25 25 25 25 25 25 25 25 25 25 25 25 25 25 25 25 25 25 25 25 25 25 25 25 25 25 25 25 25 25 25 25 25 25 25 25 25 25 25 25 25 25 25 25 25 25 25 25 25 25 25 25 25 25 25 25 25 25 25 25 25 25 25 25 25 25 25 25 25
C(C1(C(C(C(C(C1)[N+])O)O)O))O
InChI=1S/C7H15NO4/c8-4-1-3(2-9)5(10)7(12)6(4)11/h3-7,9-12H,1-2,8H2/p+1/t3-,4+,5-,6+,7+/m1/s1
