17
metacyc CPD-15531  10.8275238152 10.8275238152 10.8275238152 10.8275238152 10.8275238152 10.8275238152 10.8275238152 10.8275238152 10.8275238152 10.8275238152 10.8275238152 10.8275238152 10.8275238152 10.8275238152 10.8275238152
C         -1.16908       -0.67724        0.03147
C         -0.06678       -1.43004        0.11700
C         -0.01807       -2.92297        0.15581
O         -1.32061       -3.49856        0.16726
C          1.20970       -0.65075        0.14046
N          2.43117       -1.27039        0.20536
N          1.26207        0.64919        0.10240
C          0.10094        1.37079        0.03003
O          0.07678        2.59829       -0.00018
N         -1.08369        0.68061       -0.00334
H         -2.16868       -1.09609       -0.02240
H          0.50707       -3.27340        1.05077
H          0.50682       -3.30848       -0.72372
H         -1.71468       -3.30314        1.03443
H          2.51343       -2.08683        0.79685
H          3.17299       -0.59574        0.37832
H         -1.91050        1.25887       -0.07297
17 17 17 17 17 17 17 17 17 17 17 17 17 17 17 17 17 17 17 17 17 17 17 17 17 17 17 17 17 17 17 17 17 17 17 17 17 17 17 17 17 17 17 17 17 17
C1(=C(CO)C(N)=NC(=O)N1)
InChI=1S/C5H7N3O2/c6-4-3(2-9)1-7-5(10)8-4/h1,9H,2H2,(H3,6,7,8,10)
