20
metacyc CPD-806  388.5266584 388.5266584 388.5266584 388.5266584 388.5266584 388.5266584 388.5266584 388.5266584 388.5266584 388.5266584 388.5266584 388.5266584 388.5266584 388.5266584 388.5266584
C          1.15262       -0.22856        0.22302
C          2.66634       -0.24994        0.37269
N          3.19799       -1.40455       -0.32411
C          4.56788       -1.60377       -0.23493
N          5.39136       -0.56974       -0.13109
C          6.66528       -0.91583       -0.09445
N          7.18283       -2.12784       -0.13815
C          6.27271       -3.07410       -0.25133
N          6.72004       -4.37854       -0.31572
N          4.96186       -2.87239       -0.27678
O          7.53383        0.12747       -0.00008
H          0.73305        0.66480        0.69560
H          0.70063       -1.10836        0.69370
H          0.86093       -0.22815       -0.83288
H          2.92175       -0.28723        1.43843
H          3.07281        0.67767       -0.04735
H          2.75386       -2.29370       -0.12175
H          7.65200       -4.45286        0.06833
H          6.01816       -5.02166        0.02009
H          6.90303        0.86407       -0.04153
20 20 20 20 20 20 20 20 20 20 20 20 20 20 20 20 20 20 20 20 20 20 20 20 20 20 20 20 20 20 20 20 20 20 20 20 20 20 20 20 20 20 20 20 20 20 20 20 20 20 20 20 20 20 20
CCNC1(N=C(N=C(N)N=1)O)
InChI=1S/C5H9N5O/c1-2-7-4-8-3(6)9-5(11)10-4/h2H2,1H3,(H4,6,7,8,9,10,11)
