10
metacyc CPD-3682  381.40521844 381.40521844 381.40521844 381.40521844 381.40521844 381.40521844 381.40521844 381.40521844 381.40521844 381.40521844 381.40521844 381.40521844 381.40521844 381.40521844 381.40521844
C          0.92997       -0.04739        0.09203
N          0.46520       -1.35739        0.53336
C          2.46065       -0.01041        0.07299
N          2.96901        1.28433       -0.38776
H          0.53694        0.71935        0.76811
H          0.53001        0.15253       -0.90780
H          2.85166       -0.79688       -0.58314
H          2.85020       -0.19879        1.08008
H          2.70093        1.43203       -1.36069
H          3.98892        1.26386       -0.37837
10 10 10 10 10 10 10 10 10 10 10 10 10 10 10 10 10 10 10 10 10 10 10 10 10
C([N+])CN
InChI=1S/C2H8N2/c3-1-2-4/h1-4H2/p+1
