7
metacyc CPD-19558  600.046268 600.046268 600.046268 600.046268 600.046268 600.046268 600.046268 600.046268 600.046268 600.046268 600.046268 600.046268 600.046268 600.046268 600.046268
C          1.02123        0.02453        0.09459
C          2.32509        0.02453        0.09459
C          3.84509        0.02453        0.09459
H         -0.04441        0.02453        0.09459
H          4.21832       -0.96699       -0.17643
H          4.21832        0.28557        1.08879
H          4.21832        0.75500       -0.62858
7 7 7 7 7 7 7 7 7 7 7 7 7 7 7 7
C#CC
InChI=1S/C3H4/c1-3-2/h1H,2H3
