17
metacyc CPD-13222  387.778165904 387.778165904 387.778165904 387.778165904 387.778165904 387.778165904 387.778165904 387.778165904 387.778165904 387.778165904 387.778165904 387.778165904 387.778165904 387.778165904 387.778165904
C          0.90012       -1.58379        1.22845
C          2.39117       -1.63455        1.26455
C          3.17819       -0.74884        0.63264
C          4.66387       -0.86678        0.71903
C          5.56039        0.13404        0.00379
C          4.89698        1.24439       -0.78845
O          5.17622       -1.77921        1.37194
H          0.48556       -2.40927        1.81663
H          0.52914       -1.68541        0.20409
H          0.52985       -0.64869        1.65960
H          2.83762       -2.44328        1.84230
H          2.74898        0.05876        0.05610
H          6.20131       -0.44140       -0.67448
H          6.20160        0.58844        0.76824
H          4.27306        0.84279       -1.59319
H          5.65911        1.88498       -1.24490
H          4.27313        1.87422       -0.14656
17 17 17 17 17 17 17 17 17 17 17 17 17 17 17 17 17 17 17 17 17 17 17 17 17 17 17 17 17 17 17 17 17 17 17 17 17 17 17 17 17 17 17 17 17 17
CC=CC(CC)=O
InChI=1S/C6H10O/c1-3-5-6(7)4-2/h3,5H,4H2,1-2H3/b5-3+
