19
metacyc CPD-19557  34.458516072 34.458516072 34.458516072 34.458516072 34.458516072 34.458516072 34.458516072 34.458516072 34.458516072 34.458516072 34.458516072 34.458516072 34.458516072 34.458516072 34.458516072
C         -1.56200       -0.09034       -0.10111
C         -0.91158        1.14127       -0.10797
C          0.48471        1.19346       -0.10274
C          1.26381        0.02451       -0.08872
C          0.58040       -1.20410       -0.07261
C         -0.81552       -1.26524       -0.08168
C          2.77032        0.08626       -0.08076
C          3.39726        0.08649        1.26262
O          3.56275        1.19723        1.86525
O          3.74593       -1.04709        1.74092
C          3.56665       -0.53112       -1.21465
O          3.42384        0.88480       -1.10140
H         -2.64646       -0.13288       -0.09408
H         -1.48291        2.06480       -0.10499
H          0.99224        2.15697       -0.08978
H          1.15892       -2.12575       -0.03106
H         -1.31205       -2.23017       -0.05874
H          3.03427       -1.02953       -2.01243
H          4.52928       -0.96554       -0.97159
19 19 19 19 19 19 19 19 19 19 19 19 19 19 19 19 19 19 19 19 19 19 19 19 19 19 19 19 19 19 19 19 19 19 19 19 19 19 19 19 19 19 19 19 19 19 19 19 19 19 19 19
C1(C=CC(=CC=1)C2(C(=O)[O-])(CO2))
InChI=1S/C9H8O3/c10-8(11)9(6-12-9)7-4-2-1-3-5-7/h1-5H,6H2,(H,10,11)/p-1
