15
metacyc CPD-14074  17.2157525024 17.2157525024 17.2157525024 17.2157525024 17.2157525024 17.2157525024 17.2157525024 17.2157525024 17.2157525024 17.2157525024 17.2157525024 17.2157525024 17.2157525024 17.2157525024 17.2157525024
C          0.77998        1.07958       -0.00199
C          1.45378       -0.26460        0.09506
C          0.49294       -1.37848       -0.05521
C         -0.83099       -1.16242       -0.06784
C         -1.82753       -2.33811       -0.22482
O         -1.33923       -3.41290       -0.67812
O         -3.01487       -2.08366        0.12503
C         -1.43386        0.19626        0.07394
N         -0.48282        1.32662       -0.00336
H          1.46248        1.94516       -0.05608
H          1.97000       -0.32203        1.05800
H          2.21187       -0.31246       -0.69398
H          0.87628       -2.39106       -0.15560
H         -1.95936        0.26785        1.03307
H         -2.17528        0.34971       -0.71986
15 15 15 15 15 15 15 15 15 15 15 15 15 15 15 15 15 15 15 15 15 15 15 15 15 15 15 15 15 15 15 15 15 15 15 15 15 15 15 15
C1(CC=C(C([O-])=O)CN=1)
InChI=1S/C6H7NO2/c8-6(9)5-2-1-3-7-4-5/h2-3H,1,4H2,(H,8,9)/p-1
