30
metacyc CPD-11271  603.58061832 603.58061832 603.58061832 603.58061832 603.58061832 603.58061832 603.58061832 603.58061832 603.58061832 603.58061832 603.58061832 603.58061832 603.58061832 603.58061832 603.58061832
C          1.05316       -0.87251       -3.03314
C          2.53685       -1.04091       -2.86523
O          3.01040       -1.92012       -2.15251
N          3.26395       -0.13991       -3.60407
C          4.71807       -0.10214       -3.59561
C          5.25494        0.84226       -2.52063
C          6.78735        0.87270       -2.49203
N          7.31097        1.36914       -3.76244
C          8.76979        1.38661       -3.77427
C          9.27566        1.90092       -5.12309
C          8.84068        3.33820       -5.40126
C          9.36091        3.76621       -6.74250
O         10.02715        4.78059       -6.93415
H          0.53038       -1.61941       -2.42848
H          0.78128       -1.01822       -4.08194
H          0.74870        0.12415       -2.70304
H          2.79851        0.62133       -4.07652
H          5.01613        0.23066       -4.59534
H          5.10121       -1.11617       -3.44182
H          4.88769        0.52376       -1.53691
H          4.86093        1.85348       -2.68585
H          7.15432       -0.13689       -2.26479
H          7.09811        1.51293       -1.65564
H          9.18312        0.38135       -3.61977
H          9.17957        2.01922       -2.97679
H          8.92615        1.24238       -5.92994
H         10.37198        1.84508       -5.13677
H          9.21811        4.01855       -4.63170
H          7.75008        3.42726       -5.43933
H          9.05978        3.12966       -7.59358
30 30 30 30 30 30 30 30 30 30 30 30 30 30 30 30 30 30 30 30 30 30 30 30 30 30 30 30 30 30 30 30 30 30 30 30 30 30 30 30 30 30 30 30 30 30 30 30 30 30 30 30 30 30 30 30 30 30 30 30 30 30 30 30 30 30 30 30 30 30 30 30 30 30 30 30 30 30 30 30 30 30 30 30 30
CC(=O)NCCC[N+]CCCC=O
InChI=1S/C9H18N2O2/c1-9(13)11-7-4-6-10-5-2-3-8-12/h8,10H,2-7H2,1H3,(H,11,13)/p+1
