10
metacyc CPD-15584  361.73027224 361.73027224 361.73027224 361.73027224 361.73027224 361.73027224 361.73027224 361.73027224 361.73027224 361.73027224 361.73027224 361.73027224 361.73027224 361.73027224 361.73027224
C          0.91231       -0.09686       -0.08800
N         -0.24683       -0.09683       -0.12633
C          2.34775       -0.09691       -0.04082
C          3.12126       -0.84768       -1.09698
C          3.12132        0.65353       -1.09717
H          2.76711       -0.09680        0.96016
H          2.57505       -1.35467       -1.88563
H          4.02906       -1.35707       -0.79359
H          2.57515        1.16037       -1.88594
H          4.02916        1.16292       -0.79390
10 10 10 10 10 10 10 10 10 10 10 10 10 10 10 10 10 10 10 10 10 10 10 10 10
C(#N)C1(CC1)
InChI=1S/C4H5N/c5-3-4-1-2-4/h4H,1-2H2
