20
metacyc CPD-3194  209.396283992 209.396283992 209.396283992 209.396283992 209.396283992 209.396283992 209.396283992 209.396283992 209.396283992 209.396283992 209.396283992 209.396283992 209.396283992 209.396283992 209.396283992
C         -0.60042        0.99331       -0.57533
N          0.75739        1.02818       -0.52584
C          1.36048       -0.00493        0.09679
C          0.67814       -1.06979        0.66091
C         -0.71332       -1.07848        0.58390
C         -1.38702       -0.02447       -0.03838
C         -2.84686       -0.07456       -0.17201
C         -3.65337        0.99826       -0.19556
C         -5.14831        0.91135       -0.36869
C         -5.90560        1.55120        0.80144
O         -5.69222        2.78576        0.98061
O         -6.68613        0.77379        1.42331
H         -1.05181        1.83474       -1.09426
H          2.44440        0.04546        0.12930
H          1.21376       -1.87499        1.14963
H         -1.26988       -1.90436        1.01954
H         -3.28638       -1.06673       -0.24552
H         -3.26602        2.00853       -0.07723
H         -5.47109       -0.12882       -0.49624
H         -5.42818        1.44468       -1.28519
20 20 20 20 20 20 20 20 20 20 20 20 20 20 20 20 20 20 20 20 20 20 20 20 20 20 20 20 20 20 20 20 20 20 20 20 20 20 20 20 20 20 20 20 20 20 20 20 20 20 20 20 20 20 20
C1(N=CC=CC(C=CCC(=O)[O-])=1)
InChI=1S/C9H9NO2/c11-9(12)5-1-3-8-4-2-6-10-7-8/h1-4,6-7H,5H2,(H,11,12)/p-1/b3-1+
