19
metacyc CPD-11625  430.28837576 430.28837576 430.28837576 430.28837576 430.28837576 430.28837576 430.28837576 430.28837576 430.28837576 430.28837576 430.28837576 430.28837576 430.28837576 430.28837576 430.28837576
C         -0.77749       -1.16962       -0.30191
N         -1.54237        0.01392        0.14632
C         -0.77509        1.22318       -0.32827
C         -1.59107        2.48808        0.03999
N         -2.94919        2.30265       -0.08283
O         -1.14887        3.58822        0.35190
C          0.64282        1.23533        0.28339
N          1.40804        0.01803       -0.05070
C          0.63811       -1.18134        0.30348
H         -0.73748       -1.19900       -1.39792
H         -1.31263       -2.06962        0.02094
H         -1.40773        0.03003        1.15965
H         -0.71938        1.20403       -1.42554
H         -3.23124        1.32631       -0.04738
H         -3.54141        3.02138        0.29715
H          0.57477        1.36997        1.37211
H          1.17507        2.12171       -0.08412
H          0.56811       -1.29568        1.39353
H          1.15595       -2.07860       -0.05734
19 19 19 19 19 19 19 19 19 19 19 19 19 19 19 19 19 19 19 19 19 19 19 19 19 19 19 19 19 19 19 19 19 19 19 19 19 19 19 19 19 19 19 19 19 19 19 19 19 19 19 19
C1(NC(C(N)=O)C[N+]C1)
InChI=1S/C5H11N3O/c6-5(9)4-3-7-1-2-8-4/h4,7-8H,1-3H2,(H2,6,9)/p+1/t4-/m1/s1
