27
metacyc CPD-9373  52.960816776 52.960816776 52.960816776 52.960816776 52.960816776 52.960816776 52.960816776 52.960816776 52.960816776 52.960816776 52.960816776 52.960816776 52.960816776 52.960816776 52.960816776
C          2.21580       -0.68989       -1.23589
C          2.58140        0.09162        0.02303
C          1.33806        0.80008        0.58645
O          1.64978        1.62334        1.70159
N          3.18776       -0.79025        1.01458
C          4.52886       -1.11502        0.97709
O          5.29795       -0.70989        0.11161
C          4.98185       -2.01547        2.10705
C          5.33917       -1.24798        3.38288
C          4.18762       -0.45861        4.01307
N          3.04654       -1.34892        4.27497
C          4.52916        0.26275        5.33991
O          5.68527        0.05185        5.81026
O          3.62491        1.03516        5.78027
H          1.81120       -0.02296       -2.00433
H          1.46182       -1.45478       -1.01799
H          3.08878       -1.19876       -1.65719
H          3.33153        0.85265       -0.23337
H          0.57337        0.08103        0.89313
H          0.90125        1.45255       -0.17996
H          2.07309        1.06702        2.38274
H          2.60353       -1.24329        1.71150
H          5.86585       -2.56271        1.75508
H          4.21529       -2.77432        2.29885
H          6.15989       -0.55358        3.16173
H          5.73627       -1.96850        4.11102
H          3.87025        0.32701        3.32122
27 27 27 27 27 27 27 27 27 27 27 27 27 27 27 27 27 27 27 27 27 27 27 27 27 27 27 27 27 27 27 27 27 27 27 27 27 27 27 27 27 27 27 27 27 27 27 27 27 27 27 27 27 27 27 27 27 27 27 27 27 27 27 27 27 27 27 27 27 27 27 27 27 27 27 27
CC(CO)NC(=O)CCC([N+])C([O-])=O
InChI=1S/C8H16N2O4/c1-5(4-11)10-7(12)3-2-6(9)8(13)14/h5-6,11H,2-4,9H2,1H3,(H,10,12)(H,13,14)/t5-,6-/m0/s1
