20
metacyc CPD-14968  400.28834264 400.28834264 400.28834264 400.28834264 400.28834264 400.28834264 400.28834264 400.28834264 400.28834264 400.28834264 400.28834264 400.28834264 400.28834264 400.28834264 400.28834264
C          1.15960       -0.09723       -0.06438
C          2.66425        0.02541       -0.01872
C          3.29281        1.23218        0.51361
C          2.67813        2.31694        1.00249
O          3.32834        3.40934        1.51533
C          3.38057       -1.03599       -0.44680
C          4.82090       -1.12873       -0.52293
C          5.49714       -2.14780        0.02115
C          6.96706       -2.19727       -0.08170
O          7.61319       -3.08789        0.45520
H          0.62530        0.76298        0.34180
H          0.83215       -0.97170        0.50970
H          0.82460       -0.21936       -1.10087
H          4.37990        1.23148        0.53500
H          1.60936        2.47054        1.06533
H          4.28775        3.25347        1.48194
H          2.84885       -1.92718       -0.78366
H          5.33231       -0.32656       -1.05071
H          5.02408       -2.95139        0.57300
H          7.44697       -1.39266       -0.66304
20 20 20 20 20 20 20 20 20 20 20 20 20 20 20 20 20 20 20 20 20 20 20 20 20 20 20 20 20 20 20 20 20 20 20 20 20 20 20 20 20 20 20 20 20 20 20 20 20 20 20 20 20 20 20
CC(C=CO)=CC=CC=O
InChI=1S/C8H10O2/c1-8(5-7-10)4-2-3-6-9/h2-7,10H,1H3/b3-2+,7-5+,8-4+
