24
metacyc CPD-14512  632.43616008 632.43616008 632.43616008 632.43616008 632.43616008 632.43616008 632.43616008 632.43616008 632.43616008 632.43616008 632.43616008 632.43616008 632.43616008 632.43616008 632.43616008
C          0.92538        0.16382       -0.02303
C          2.38046       -0.24502        0.13228
C          2.90450       -0.99433       -1.08690
O          2.16033       -1.23181       -2.04691
C          4.40652       -1.31753       -1.13505
N          5.00813       -1.57008        0.18621
C          4.61443       -2.85699        0.76467
C          4.93870       -4.02393       -0.16688
C          4.30328       -3.82226       -1.53818
C          4.71526       -2.46637       -2.11041
H          0.57341        0.67199        0.88028
H          0.28643       -0.70980       -0.19282
H          0.79658        0.84367       -0.87150
H          2.46514       -0.88802        1.01215
H          2.99444        0.64879        0.28387
H          4.86158       -0.40940       -1.55605
H          3.54826       -2.88689        1.01631
H          5.14444       -3.01713        1.71147
H          4.57850       -4.96005        0.27489
H          6.02774       -4.11901       -0.27938
H          3.21146       -3.87669       -1.45184
H          4.61185       -4.62468       -2.21631
H          4.21745       -2.31031       -3.07446
H          5.79387       -2.48506       -2.31569
24 24 24 24 24 24 24 24 24 24 24 24 24 24 24 24 24 24 24 24 24 24 24 24 24 24 24 24 24 24 24 24 24 24 24 24 24 24 24 24 24 24 24 24 24 24 24 24 24 24 24 24 24 24 24 24 24 24 24 24 24 24 24 24 24 24 24
CCC(=O)C1([N+]CCCC1)
InChI=1S/C8H15NO/c1-2-8(10)7-5-3-4-6-9-7/h7,9H,2-6H2,1H3/p+1
