26
metacyc CPD-10209  152.488737672 152.488737672 152.488737672 152.488737672 152.488737672 152.488737672 152.488737672 152.488737672 152.488737672 152.488737672 152.488737672 152.488737672 152.488737672 152.488737672 152.488737672
C          0.90978        0.08624       -0.04816
C          2.43115        0.05654       -0.07010
C          2.95397       -1.34623       -0.37652
C          4.48267       -1.37999       -0.46404
C          5.03258       -2.77059       -0.78197
C          4.63145       -3.26664       -2.14629
O          3.51374       -3.55255       -2.54940
C          5.80867       -3.38564       -2.99411
O          5.79579       -3.75644       -4.29999
C          6.81686       -3.07483       -2.18485
C          8.26061       -3.07799       -2.54298
O          6.48695       -2.70424       -0.87673
H          0.55157        1.09614        0.16875
H          0.51627       -0.58782        0.72004
H          0.49857       -0.21946       -1.01581
H          2.81595        0.39735        0.89818
H          2.78868        0.76054       -0.83050
H          2.51650       -1.67020       -1.32620
H          2.61215       -2.04810        0.39349
H          4.91452       -1.03654        0.48485
H          4.82522       -0.66266       -1.22104
H          4.78130       -3.51037       -0.01807
H          4.84951       -3.87629       -4.52217
H          8.41106       -3.21991       -3.61863
H          8.77478       -3.89185       -2.02193
H          8.73170       -2.13171       -2.26150
26 26 26 26 26 26 26 26 26 26 26 26 26 26 26 26 26 26 26 26 26 26 26 26 26 26 26 26 26 26 26 26 26 26 26 26 26 26 26 26 26 26 26 26 26 26 26 26 26 26 26 26 26 26 26 26 26 26 26 26 26 26 26 26 26 26 26 26 26 26 26 26 26
CCCCC1(C(=O)C(O)=C(C)O1)
InChI=1S/C9H14O3/c1-3-4-5-7-9(11)8(10)6(2)12-7/h7,10H,3-5H2,1-2H3
