21
metacyc CPD-12682  68.818574256 68.818574256 68.818574256 68.818574256 68.818574256 68.818574256 68.818574256 68.818574256 68.818574256 68.818574256 68.818574256 68.818574256 68.818574256 68.818574256 68.818574256
C          1.08159       -1.35450       -1.01078
O          0.44558       -1.42265       -2.10897
O          0.58403       -1.44083        0.15841
C          2.60466       -1.15442       -1.05730
O          3.14473       -1.03368       -2.15743
C          3.31786       -1.12373        0.28367
C          4.81778       -0.94752        0.18594
C          5.32940        0.47224        0.11322
C          6.86300        0.63862        0.14033
C          7.65953       -0.63399        0.12278
C          7.08546       -1.84334        0.14022
C          5.65507       -1.99933        0.19678
H          3.09250       -2.06242        0.80392
H          2.89621       -0.30830        0.88283
H          4.91239        1.04244        0.95360
H          4.94157        0.94327       -0.79873
H          7.14370        1.20550        1.03713
H          7.16838        1.25334       -0.71528
H          8.74105       -0.55101        0.09020
H          7.68706       -2.74652        0.11847
H          5.26846       -3.01426        0.23774
21 21 21 21 21 21 21 21 21 21 21 21 21 21 21 21 21 21 21 21 21 21 21 21 21 21 21 21 21 21 21 21 21 21 21 21 21 21 21 21 21 21 21 21 21 21 21 21 21 21 21 21 21 21 21 21 21 21
C([O-])(=O)C(=O)CC1(CCC=CC=1)
InChI=1S/C9H10O3/c10-8(9(11)12)6-7-4-2-1-3-5-7/h1-2,4H,3,5-6H2,(H,11,12)/p-1
