23
metacyc CPD-21058  279.11501656 279.11501656 279.11501656 279.11501656 279.11501656 279.11501656 279.11501656 279.11501656 279.11501656 279.11501656 279.11501656 279.11501656 279.11501656 279.11501656 279.11501656
C          1.33947        0.30675        0.13005
N          2.59921       -0.01207       -0.51411
C          3.02943       -1.38817       -0.63358
N          2.33353       -2.30551        0.27118
N          2.26079       -3.51938       -0.03434
C          2.75996       -3.95290       -1.24254
N          3.05726       -3.22444       -2.26473
C          2.79853       -1.79174       -2.06910
C          3.77915       -0.94021       -2.86922
O          4.32298       -1.33839       -3.89705
N          3.96353        0.36880       -2.37950
C          4.81912        1.25052       -3.15168
C          3.19850        0.91931       -1.34342
O          3.02203        2.12960       -1.21403
H          0.57120       -0.36744       -0.26338
H          1.02581        1.33077       -0.09142
H          1.43761        0.17403        1.20775
H          4.10560       -1.41706       -0.38687
H          2.89793       -5.04400       -1.33203
H          1.78077       -1.55569       -2.40929
H          4.75380        1.02849       -4.21929
H          5.85318        1.07600       -2.82411
H          4.57946        2.30316       -2.99159
23 23 23 23 23 23 23 23 23 23 23 23 23 23 23 23 23 23 23 23 23 23 23 23 23 23 23 23 23 23 23 23 23 23 23 23 23 23 23 23 23 23 23 23 23 23 23 23 23 23 23 23 23 23 23 23 23 23 23 23 23 23 23 23
CN1(C2(N=NC=NC(C(=O)N(C)C(=O)1)2))
InChI=1S/C7H9N5O2/c1-11-5-4(8-3-9-10-5)6(13)12(2)7(11)14/h3-5H,1-2H3
