17
metacyc CPD-15171  70.85930352 70.85930352 70.85930352 70.85930352 70.85930352 70.85930352 70.85930352 70.85930352 70.85930352 70.85930352 70.85930352 70.85930352 70.85930352 70.85930352 70.85930352
C         -0.15075       -0.20467       -1.04548
N          0.17008        0.99789       -0.49340
C          0.19329        0.83554        0.86213
N         -0.08383       -0.40101        1.20666
C         -0.34538       -1.05669        0.02052
C         -0.77628       -2.48376       -0.01509
C         -2.28689       -2.66467        0.02482
C         -3.02551       -2.17852       -1.22056
O         -2.39766       -2.25729       -2.31379
O         -4.21511       -1.80024       -1.01271
H         -0.26995       -0.35710       -2.10951
H          0.33019        1.85802       -0.99594
H          0.40817        1.64887        1.54000
H         -0.33972       -2.99659        0.85136
H         -0.35077       -2.97188       -0.90082
H         -2.70122       -2.17033        0.91274
H         -2.51008       -3.73443        0.11891
17 17 17 17 17 17 17 17 17 17 17 17 17 17 17 17 17 17 17 17 17 17 17 17 17 17 17 17 17 17 17 17 17 17 17 17 17 17 17 17 17 17 17 17 17 17
C1(NC=NC=1CCC([O-])=O)
InChI=1S/C6H8N2O2/c9-6(10)2-1-5-3-7-4-8-5/h3-4H,1-2H2,(H,7,8)(H,9,10)/p-1
