21
metacyc CPD-19114  25.4676285112 25.4676285112 25.4676285112 25.4676285112 25.4676285112 25.4676285112 25.4676285112 25.4676285112 25.4676285112 25.4676285112 25.4676285112 25.4676285112 25.4676285112 25.4676285112 25.4676285112
C          1.82957        2.38703        0.04697
O          0.80320        1.72477        0.36564
O          1.96731        3.64102       -0.06399
C          3.07765        1.58525       -0.24268
C          2.87222        0.50782       -1.27713
C          2.07367        0.75483       -2.52985
C          1.51027       -0.32865       -3.24626
C          0.72770       -0.06459       -4.38184
C          0.47460        1.24360       -4.79239
C          1.04215        2.30621       -4.09917
C          1.85036        2.06383       -2.98646
N          1.84347       -1.67787       -2.98867
O          3.43535       -0.58609       -1.13638
H          3.36345        1.09925        0.69995
H          3.91387        2.21946       -0.55565
H          0.31894       -0.88919       -4.95894
H         -0.15200        1.43090       -5.65903
H          0.85497        3.33041       -4.41039
H          2.28612        2.92070       -2.47844
H          2.31431       -1.76031       -2.07817
H          1.05905       -2.31036       -3.08176
21 21 21 21 21 21 21 21 21 21 21 21 21 21 21 21 21 21 21 21 21 21 21 21 21 21 21 21 21 21 21 21 21 21 21 21 21 21 21 21 21 21 21 21 21 21 21 21 21 21 21 21 21 21 21 21 21 21
C([O-])(=O)CC(C1(C(=CC=CC=1)N))=O
InChI=1S/C9H9NO3/c10-7-4-2-1-3-6(7)8(11)5-9(12)13/h1-4H,5,10H2,(H,12,13)/p-1
