16
metacyc CPD-14382  78.139467704 78.139467704 78.139467704 78.139467704 78.139467704 78.139467704 78.139467704 78.139467704 78.139467704 78.139467704 78.139467704 78.139467704 78.139467704 78.139467704 78.139467704
C          0.88962       -0.10038        0.18310
O          0.33714       -1.23744        0.16033
O          0.35676        1.04323        0.27549
C          2.43841       -0.09580        0.08008
C          3.09504        1.25733        0.05463
C          4.59136        1.20212       -0.14733
C          5.28317        0.05400       -0.21983
C          4.63368       -1.29739       -0.10464
C          3.14179       -1.24237        0.01142
H          2.89832        1.77747        1.00000
H          2.66896        1.85957       -0.75649
H          5.10375        2.15410       -0.23641
H          6.35707        0.07842       -0.36834
H          5.04117       -1.81247        0.77256
H          4.89776       -1.89041       -0.98742
H          2.60964       -2.19158        0.03472
16 16 16 16 16 16 16 16 16 16 16 16 16 16 16 16 16 16 16 16 16 16 16 16 16 16 16 16 16 16 16 16 16 16 16 16 16 16 16 16 16 16 16
C(=O)([O-])C1(CC=CCC=1)
InChI=1S/C7H8O2/c8-7(9)6-4-2-1-3-5-6/h1-2,5H,3-4H2,(H,8,9)/p-1
