23
metacyc CPD-19624  275.58204696 275.58204696 275.58204696 275.58204696 275.58204696 275.58204696 275.58204696 275.58204696 275.58204696 275.58204696 275.58204696 275.58204696 275.58204696 275.58204696 275.58204696
C          0.94486       -0.01631        0.00720
C          2.46315       -0.07091        0.10586
C          2.98742       -0.22341        1.54573
C          2.50853       -1.52257        2.20212
C          4.52554       -0.14773        1.54501
O          5.06534       -0.30794        2.86750
C          5.08668        0.80897        3.64222
C          5.65829        0.50277        4.99422
O          4.69452        1.91715        3.30507
H          0.64313        0.18488       -1.02587
H          0.53787        0.77837        0.64008
H          0.48740       -0.96515        0.30201
H          2.86622        0.85354       -0.32626
H          2.83087       -0.89589       -0.51673
H          2.60019        0.60607        2.15076
H          2.81883       -2.39672        1.62025
H          1.41846       -1.54215        2.29444
H          2.91208       -1.62851        3.21441
H          4.88134        0.78987        1.09970
H          4.94192       -0.95985        0.93763
H          5.93835       -0.55210        5.07125
H          4.90801        0.71624        5.75969
H          6.55286        1.10962        5.15336
23 23 23 23 23 23 23 23 23 23 23 23 23 23 23 23 23 23 23 23 23 23 23 23 23 23 23 23 23 23 23 23 23 23 23 23 23 23 23 23 23 23 23 23 23 23 23 23 23 23 23 23 23 23 23 23 23 23 23 23 23 23 23 23
CCC(C)COC(C)=O
InChI=1S/C7H14O2/c1-4-6(2)5-9-7(3)8/h6H,4-5H2,1-3H3
