19
metacyc CPD-14086  284.113474 284.113474 284.113474 284.113474 284.113474 284.113474 284.113474 284.113474 284.113474 284.113474 284.113474 284.113474 284.113474 284.113474 284.113474
C          0.97278       -0.01501        0.04435
C          2.50991       -0.08315        0.10661
C          2.96485       -0.14002        1.58568
N          2.52549       -1.36827        2.26354
C          4.49046        0.01355        1.82134
O          5.24200       -0.91729        1.41389
O          4.82332        1.10450        2.38318
C          3.05343       -1.24079       -0.76833
C          2.67944       -1.11457       -2.24614
N          3.26341       -2.20397       -3.02297
H          0.59058        0.78022        0.69402
H          0.51623       -0.95897        0.35939
H          0.61959        0.20904       -0.96638
H          2.89560        0.85539       -0.31480
H          2.48407        0.69509        2.11252
H          2.69626       -2.20291       -0.38100
H          4.14639       -1.25814       -0.70975
H          3.03584       -0.16146       -2.64898
H          1.59556       -1.15354       -2.38452
19 19 19 19 19 19 19 19 19 19 19 19 19 19 19 19 19 19 19 19 19 19 19 19 19 19 19 19 19 19 19 19 19 19 19 19 19 19 19 19 19 19 19 19 19 19 19 19 19 19 19 19
CC(C([N+])C([O-])=O)CC[N+]
InChI=1S/C6H14N2O2/c1-4(2-3-7)5(8)6(9)10/h4-5H,2-3,7-8H2,1H3,(H,9,10)/p+1/t4-,5-/m1/s1
