22
metacyc CPD-20027  384.41332616 384.41332616 384.41332616 384.41332616 384.41332616 384.41332616 384.41332616 384.41332616 384.41332616 384.41332616 384.41332616 384.41332616 384.41332616 384.41332616 384.41332616
C          0.81574        2.01862        0.26339
N          0.16536        3.23131       -0.21617
C          2.32431        2.22848        0.37261
C          3.01668        0.93747        0.81639
C          4.53993        1.06079        0.93912
C          5.06171        2.09597        1.95554
C          4.56574        1.82798        3.37123
C          4.90393        2.92816        4.37282
O          4.92278        4.10552        3.91946
O          5.05602        2.52317        5.55994
N          6.52814        2.00737        1.90926
H          0.59224        1.20169       -0.43069
H          0.39769        1.74917        1.23891
H          2.52706        3.03293        1.08743
H          2.73093        2.54190       -0.59728
H          2.80210        0.15124        0.08084
H          2.58802        0.58671        1.76209
H          4.94581        1.29662       -0.05444
H          4.93117        0.06744        1.19957
H          4.77863        3.10036        1.62196
H          4.94160        0.86399        3.73572
H          3.47090        1.76717        3.38503
22 22 22 22 22 22 22 22 22 22 22 22 22 22 22 22 22 22 22 22 22 22 22 22 22 22 22 22 22 22 22 22 22 22 22 22 22 22 22 22 22 22 22 22 22 22 22 22 22 22 22 22 22 22 22 22 22 22 22 22 22
C([N+])CCCC(CC([O-])=O)[N+]
InChI=1S/C7H16N2O2/c8-4-2-1-3-6(9)5-7(10)11/h6H,1-5,8-9H2,(H,10,11)/p+1/t6-/m0/s1
