18
metacyc CPD-74  1.76231393776 1.76231393776 1.76231393776 1.76231393776 1.76231393776 1.76231393776 1.76231393776 1.76231393776 1.76231393776 1.76231393776 1.76231393776 1.76231393776 1.76231393776 1.76231393776 1.76231393776
C          1.03041        0.22810       -0.14881
C          2.36860        0.09486       -0.12828
C          3.07062       -0.81673        0.85477
C          3.31202       -2.24476        0.35082
N          4.19213       -2.28164       -0.82398
C          4.00928       -3.09105        1.44155
O          4.79779       -2.47185        2.21604
O          3.68794       -4.31494        1.45551
C          3.15092        0.97610       -1.05124
O          2.66575        1.94204       -1.63129
N          4.45642        0.64929       -1.22869
H          0.39812       -0.34976        0.51639
H          0.53772        0.91445       -0.83148
H          2.46289       -0.87676        1.76976
H          4.00378       -0.34037        1.18303
H          2.35566       -2.71466        0.09083
H          4.82730       -0.24415       -0.92177
H          4.97940        1.16645       -1.91772
18 18 18 18 18 18 18 18 18 18 18 18 18 18 18 18 18 18 18 18 18 18 18 18 18 18 18 18 18 18 18 18 18 18 18 18 18 18 18 18 18 18 18 18 18 18 18 18 18
C=C(CC([N+])C(=O)[O-])C(=O)N
InChI=1S/C6H10N2O3/c1-3(5(8)9)2-4(7)6(10)11/h4H,1-2,7H2,(H2,8,9)(H,10,11)/t4-/m0/s1
