16
metacyc CPD-20950  318.1099384 318.1099384 318.1099384 318.1099384 318.1099384 318.1099384 318.1099384 318.1099384 318.1099384 318.1099384 318.1099384 318.1099384 318.1099384 318.1099384 318.1099384
C          1.16228        0.08695        0.33301
N          2.58012        0.13815        0.06001
C          3.25249        1.29916       -0.26658
O          2.81440        2.43771       -0.21553
C          4.62459        0.92590       -0.76530
C          4.74251       -0.56897       -0.49449
C          3.32955       -1.05307       -0.23634
H          0.77049        1.08720        0.53424
H          0.98624       -0.56035        1.19617
H          0.65243       -0.32277       -0.54448
H          5.39236        1.48991       -0.22953
H          4.68110        1.14158       -1.83649
H          5.37244       -0.74097        0.38639
H          5.20856       -1.10054       -1.33058
H          3.28352       -1.74038        0.61536
H          2.89910       -1.53548       -1.11899
16 16 16 16 16 16 16 16 16 16 16 16 16 16 16 16 16 16 16 16 16 16 16 16 16 16 16 16 16 16 16 16 16 16 16 16 16 16 16 16 16 16 16
CN1(C(=O)CCC1)
InChI=1S/C5H9NO/c1-6-4-2-3-5(6)7/h2-4H2,1H3
