14
metacyc CPD-11172  92.27671836 92.27671836 92.27671836 92.27671836 92.27671836 92.27671836 92.27671836 92.27671836 92.27671836 92.27671836 92.27671836 92.27671836 92.27671836 92.27671836 92.27671836
C          0.87907       -0.01671        0.02649
C          2.21637        0.02896       -0.00080
C          3.05324       -0.98382        0.60466
C          4.39912       -0.99300        0.61015
N          5.21922       -0.03569        0.03784
C          5.13351       -2.23383        1.35195
O          4.38690       -3.10817        1.87466
O          6.40299       -2.15373        1.30407
H          0.29206        0.76525       -0.44098
H          0.34850       -0.82921        0.51223
H          2.70699        0.85916       -0.49712
H          2.53588       -1.80751        1.09709
H          4.86872        0.77022       -0.44395
H          6.21345       -0.23873        0.15923
14 14 14 14 14 14 14 14 14 14 14 14 14 14 14 14 14 14 14 14 14 14 14 14 14 14 14 14 14 14 14 14 14 14 14 14 14
C=CC=C(N)C([O-])=O
InChI=1S/C5H7NO2/c1-2-3-4(6)5(7)8/h2-3H,1,6H2,(H,7,8)/p-1/b4-3+
