14
metacyc CPD-13555  63.299593744 63.299593744 63.299593744 63.299593744 63.299593744 63.299593744 63.299593744 63.299593744 63.299593744 63.299593744 63.299593744 63.299593744 63.299593744 63.299593744 63.299593744
C          1.03721        0.04417        0.03096
C          0.54708       -1.29239        0.51859
H          0.84277       -1.56673        1.54619
O         -0.15689       -2.04007       -0.15207
C          2.56290        0.07126        0.03255
C          3.11206        1.40876       -0.44527
O          2.69195        1.67851       -1.77341
H          0.63228        0.81415        0.69610
H          0.63903        0.21606       -0.97462
H          2.93210       -0.72979       -0.61969
H          2.94066       -0.13695        1.04067
H          4.20645        1.40719       -0.42148
H          2.76112        2.22404        0.19528
H          3.05433        0.98242       -2.34890
14 14 14 14 14 14 14 14 14 14 14 14 14 14 14 14 14 14 14 14 14 14 14 14 14 14 14 14 14 14 14 14 14 14 14 14 14
C([CH]=O)CCO
InChI=1S/C4H8O2/c5-3-1-2-4-6/h3,6H,1-2,4H2
