19
metacyc CPD-1067  284.113474 284.113474 284.113474 284.113474 284.113474 284.113474 284.113474 284.113474 284.113474 284.113474 284.113474 284.113474 284.113474 284.113474 284.113474
C          1.08019        0.11950       -0.32590
C          2.58399       -0.12736       -0.26428
C          2.96676       -1.47742        0.36558
C          2.52828       -1.64067        1.83652
C          2.98875       -2.96091        2.44892
C          2.34573       -4.17720        1.78816
O          1.20645       -3.99191        1.28120
O          3.04190       -5.23071        1.84382
N          3.10523       -0.55277        2.64039
N          3.11070       -0.06475       -1.63123
H          0.62210        0.08095        0.66699
H          0.57304       -0.61600       -0.96051
H          0.86875        1.11567       -0.73316
H          3.05146        0.68849        0.29637
H          4.05672       -1.60297        0.30266
H          2.53326       -2.28522       -0.23879
H          1.43906       -1.56293        1.91233
H          2.70488       -2.99851        3.51008
H          4.08036       -3.04988        2.40245
19 19 19 19 19 19 19 19 19 19 19 19 19 19 19 19 19 19 19 19 19 19 19 19 19 19 19 19 19 19 19 19 19 19 19 19 19 19 19 19 19 19 19 19 19 19 19 19 19 19 19 19
CC(CC(CC([O-])=O)[N+])[N+]
InChI=1S/C6H14N2O2/c1-4(7)2-5(8)3-6(9)10/h4-5H,2-3,7-8H2,1H3,(H,9,10)/p+1/t4-,5-/m0/s1
