17
metacyc CPD-173  143.96713048 143.96713048 143.96713048 143.96713048 143.96713048 143.96713048 143.96713048 143.96713048 143.96713048 143.96713048 143.96713048 143.96713048 143.96713048 143.96713048 143.96713048
C          1.11222        0.09136        0.01776
C          0.67034       -1.08557        0.84730
C          1.24016       -2.34976        0.63512
C          0.82494       -3.45299        1.38405
C         -0.16621       -3.30693        2.35312
C         -0.74194       -2.05726        2.57858
C         -0.32107       -0.95979        1.82785
O         -0.86296        0.27630        2.05270
O          1.65867        1.11764        0.83602
H          0.26154        0.49818       -0.53990
H          1.87616       -0.19655       -0.71150
H          2.01714       -2.48189       -0.11495
H          1.27750       -4.42636        1.21133
H         -0.48534       -4.16749        2.93616
H         -1.50653       -1.95848        3.34278
H         -1.58125        0.18299        2.70174
H          1.03166        1.21477        1.57781
17 17 17 17 17 17 17 17 17 17 17 17 17 17 17 17 17 17 17 17 17 17 17 17 17 17 17 17 17 17 17 17 17 17 17 17 17 17 17 17 17 17 17 17 17 17
C(C1(C=CC=CC=1O))O
InChI=1S/C7H8O2/c8-5-6-3-1-2-4-7(6)9/h1-4,8-9H,5H2
