22
metacyc CPD-6122  785.90051032 785.90051032 785.90051032 785.90051032 785.90051032 785.90051032 785.90051032 785.90051032 785.90051032 785.90051032 785.90051032 785.90051032 785.90051032 785.90051032 785.90051032
C         -0.91879        1.43424       -0.05033
C         -2.20255        0.69710        0.35092
C         -2.20196       -0.74563       -0.17227
N         -0.94755       -1.41566        0.19204
C          0.18812       -0.67878       -0.32536
C          1.53448       -1.24708        0.09155
C          2.45772       -0.02730        0.06959
C          1.52581        1.18363        0.01180
N          0.22670        0.62406        0.33960
H         -0.88937        2.40370        0.45955
H         -0.92387        1.62982       -1.13054
H         -3.07812        1.23335       -0.03240
H         -2.28598        0.68761        1.44608
H         -2.35221       -0.73909       -1.25960
H         -3.06340       -1.27443        0.25149
H          0.16544       -0.57503       -1.42030
H          1.88244       -2.03247       -0.58757
H          1.50815       -1.67318        1.10315
H          3.11325       -0.04899       -0.80794
H          3.08861       -0.01113        0.96479
H          1.54573        1.61739       -0.99597
H          1.82916        1.95592        0.72529
22 22 22 22 22 22 22 22 22 22 22 22 22 22 22 22 22 22 22 22 22 22 22 22 22 22 22 22 22 22 22 22 22 22 22 22 22 22 22 22 22 22 22 22 22 22 22 22 22 22 22 22 22 22 22 22 22 22 22 22 22
C1(CC[N+]C2(CCCN12))
InChI=1S/C7H14N2/c1-3-7-8-4-2-6-9(7)5-1/h7-8H,1-6H2/p+1
