18
metacyc CPD-8923  610.92031664 610.92031664 610.92031664 610.92031664 610.92031664 610.92031664 610.92031664 610.92031664 610.92031664 610.92031664 610.92031664 610.92031664 610.92031664 610.92031664 610.92031664
C          0.73808        1.25941       -0.22676
C         -0.71838        1.26000        0.22972
C         -1.44972       -0.00147       -0.22134
C         -0.72079       -1.26480        0.22838
C          0.73556       -1.26645       -0.22842
C          1.46783       -0.00454        0.22019
H          1.25028        2.14186        0.17286
H          0.77700        1.33497       -1.32049
H         -1.22912        2.14452       -0.16728
H         -0.75739        1.33222        1.32362
H         -1.53698       -0.00081       -1.31488
H         -2.46916       -0.00071        0.18055
H         -1.23328       -2.14792       -0.16938
H         -0.75969       -1.33803        1.32227
H          0.77413       -1.34052       -1.32224
H          1.24612       -2.15047        0.16984
H          2.48604       -0.00529       -0.18481
H          1.55853       -0.00538        1.31342
18 18 18 18 18 18 18 18 18 18 18 18 18 18 18 18 18 18 18 18 18 18 18 18 18 18 18 18 18 18 18 18 18 18 18 18 18 18 18 18 18 18 18 18 18 18 18 18 18
C1(CCCCC1)
InChI=1S/C6H12/c1-2-4-6-5-3-1/h1-6H2
