22
metacyc CPD-16177  570.41053576 570.41053576 570.41053576 570.41053576 570.41053576 570.41053576 570.41053576 570.41053576 570.41053576 570.41053576 570.41053576 570.41053576 570.41053576 570.41053576 570.41053576
C          5.36078        0.84620       -2.82125
N          5.35203        0.47470       -1.40856
C          4.68529       -0.60157       -1.16346
C          4.53427       -1.11143        0.24547
C          5.09724       -2.49945        0.41179
C          6.44654       -2.67855        0.75244
C          6.97578       -3.96199        0.91139
C          6.15502       -5.06817        0.71979
O          6.62953       -6.33874        0.86264
C          4.81847       -4.91086        0.37572
C          4.28920       -3.62843        0.21749
H          5.67365        1.89109       -2.91262
H          4.36783        0.76238       -3.27722
H          6.07232        0.23076       -3.38066
H          4.18032       -1.17993       -1.95894
H          3.46541       -1.11268        0.48832
H          5.01959       -0.42113        0.94506
H          7.09239       -1.81478        0.89877
H          8.01894       -4.07479        1.18717
H          7.57927       -6.29236        1.06007
H          4.18941       -5.78526        0.23170
H          3.24071       -3.52135       -0.04977
22 22 22 22 22 22 22 22 22 22 22 22 22 22 22 22 22 22 22 22 22 22 22 22 22 22 22 22 22 22 22 22 22 22 22 22 22 22 22 22 22 22 22 22 22 22 22 22 22 22 22 22 22 22 22 22 22 22 22 22 22
C[N+]=CCC1(C=CC(O)=CC=1)
InChI=1S/C9H11NO/c1-10-7-6-8-2-4-9(11)5-3-8/h2-5,7,11H,6H2,1H3/p+1/b10-7-
