16
metacyc CPD-109  295.55345048 295.55345048 295.55345048 295.55345048 295.55345048 295.55345048 295.55345048 295.55345048 295.55345048 295.55345048 295.55345048 295.55345048 295.55345048 295.55345048 295.55345048
C          1.02711        0.08050       -0.00254
C          2.52486        0.08311       -0.09740
C          3.23252        1.29227       -0.13091
C          4.62584        1.29655       -0.22476
C          5.32578        0.09278       -0.28747
C          4.63441       -1.11800       -0.25707
C          3.24284       -1.11540       -0.16361
O          2.55273       -2.29495       -0.13578
H          0.62884        1.09689        0.08469
H          0.70259       -0.47830        0.88125
H          0.59222       -0.37321       -0.89891
H          2.70181        2.24041       -0.08418
H          5.16409        2.24061       -0.24954
H          6.41005        0.09900       -0.36070
H          5.19314       -2.04699       -0.30762
H          3.18818       -3.02650       -0.19248
16 16 16 16 16 16 16 16 16 16 16 16 16 16 16 16 16 16 16 16 16 16 16 16 16 16 16 16 16 16 16 16 16 16 16 16 16 16 16 16 16 16 16
CC1(C=CC=CC=1O)
InChI=1S/C7H8O/c1-6-4-2-3-5-7(6)8/h2-5,8H,1H3
