17
metacyc CPD-7682  107.808747256 107.808747256 107.808747256 107.808747256 107.808747256 107.808747256 107.808747256 107.808747256 107.808747256 107.808747256 107.808747256 107.808747256 107.808747256 107.808747256 107.808747256
C          1.19839        0.07352       -0.09633
C          0.38501        0.93154        0.92591
C         -1.11599        0.71358        0.77007
C         -1.82673        1.63162       -0.20948
C         -1.25440        3.02530       -0.30578
C          0.09079        3.21935        0.30464
N          0.81387        2.35029        0.90626
O          0.90582        0.26514       -1.31473
O          2.01588       -0.74523        0.42123
H          0.65256        0.54933        1.91713
H         -1.58400        0.83815        1.75710
H         -1.31580       -0.32388        0.47536
H         -2.88174        1.69739        0.07626
H         -1.82910        1.17502       -1.21069
H         -1.92705        3.73752        0.19441
H         -1.20606        3.34927       -1.35313
H          0.48732        4.24916        0.25850
17 17 17 17 17 17 17 17 17 17 17 17 17 17 17 17 17 17 17 17 17 17 17 17 17 17 17 17 17 17 17 17 17 17 17 17 17 17 17 17 17 17 17 17 17 17
C(C1(CCCC=N1))([O-])=O
InChI=1S/C6H9NO2/c8-6(9)5-3-1-2-4-7-5/h4-5H,1-3H2,(H,8,9)/p-1/t5-/m0/s1
