11
metacyc CPD-593  350.3970296 350.3970296 350.3970296 350.3970296 350.3970296 350.3970296 350.3970296 350.3970296 350.3970296 350.3970296 350.3970296 350.3970296 350.3970296 350.3970296 350.3970296
C          1.09421       -0.01279       -0.01653
N          2.54416       -0.10837        0.11399
C          3.19355       -0.77928        1.03677
N          2.64075       -1.47658        1.99681
N          4.44586       -0.74997        0.99545
H          0.85647        0.61499       -0.87900
H          0.67404        0.43933        0.88568
H          0.67350       -1.01011       -0.16918
H          3.13968        0.37542       -0.55228
H          1.64274       -1.55810        2.10983
H          3.24798       -1.95365        2.65283
11 11 11 11 11 11 11 11 11 11 11 11 11 11 11 11 11 11 11 11 11 11 11 11 11 11 11 11
CNC(N)=[N+]
InChI=1S/C2H7N3/c1-5-2(3)4/h1H3,(H4,3,4,5)/p+1
