12
metacyc CPD-20308  139.187973216 139.187973216 139.187973216 139.187973216 139.187973216 139.187973216 139.187973216 139.187973216 139.187973216 139.187973216 139.187973216 139.187973216 139.187973216 139.187973216 139.187973216
C         -0.01058        0.91803        0.03187
O         -0.60062       -0.38329        0.01214
C          0.83780       -0.32994        0.01069
C          1.49143       -0.91919        1.24497
C          1.33832       -2.36568        1.64583
O          2.51488       -1.89550        0.98214
H         -0.07904        1.48597        0.95073
H         -0.07270        1.51016       -0.87246
H          1.32650       -0.56005       -0.93270
H          1.69516       -0.21790        2.04887
H          0.65053       -2.98313        1.08161
H          1.41899       -2.61740        2.69533
12 12 12 12 12 12 12 12 12 12 12 12 12 12 12 12 12 12 12 12 12 12 12 12 12 12 12 12 12 12 12
C2(OC(C1(CO1))2)
InChI=1S/C4H6O2/c1-3(5-1)4-2-6-4/h3-4H,1-2H2
