13
metacyc CPD-12428  136.63105132 136.63105132 136.63105132 136.63105132 136.63105132 136.63105132 136.63105132 136.63105132 136.63105132 136.63105132 136.63105132 136.63105132 136.63105132 136.63105132 136.63105132
C         -0.67507        1.09040        0.00726
N          0.69033        1.20130        0.03520
C          1.37195        0.09950        0.03977
N          2.72615        0.13191        0.06378
N          0.78806       -1.12985        0.00878
C         -0.56492       -1.30092       -0.01244
O         -1.10109       -2.40250       -0.02470
C         -1.35072       -0.06141       -0.01944
H         -1.21827        2.03213        0.01029
H          3.08129        1.06152       -0.13893
H          3.20582       -0.59191       -0.45330
H          1.34632       -1.96504        0.05523
H         -2.42835       -0.12892       -0.03734
13 13 13 13 13 13 13 13 13 13 13 13 13 13 13 13 13 13 13 13 13 13 13 13 13 13 13 13 13 13 13 13 13 13
C1(N=C(N)NC(=O)C=1)
InChI=1S/C4H5N3O/c5-4-6-2-1-3(8)7-4/h1-2H,(H3,5,6,7,8)
