19
metacyc CPD-10595  394.3051808 394.3051808 394.3051808 394.3051808 394.3051808 394.3051808 394.3051808 394.3051808 394.3051808 394.3051808 394.3051808 394.3051808 394.3051808 394.3051808 394.3051808
C          1.07054       -0.36461        0.06538
C          2.56251       -0.04785        0.04318
O          3.31711       -1.23707        0.26608
C          2.96314        0.61578       -1.25725
C          2.92268        2.01608       -1.35937
C          3.22959        2.65312       -2.56293
C          3.57849        1.90024       -3.68143
C          3.62733        0.51088       -3.59549
C          3.32055       -0.12819       -2.39210
H          0.79733       -0.85490        1.00603
H          0.79911       -1.05543       -0.74131
H          0.46658        0.54158       -0.04580
H          2.80234        0.62179        0.87706
H          2.88646       -1.95522       -0.22457
H          2.64693        2.62048       -0.49792
H          3.19300        3.73714       -2.62765
H          3.81297        2.39574       -4.61982
H          3.90283       -0.07769       -4.46657
H          3.36612       -1.21293       -2.35213
19 19 19 19 19 19 19 19 19 19 19 19 19 19 19 19 19 19 19 19 19 19 19 19 19 19 19 19 19 19 19 19 19 19 19 19 19 19 19 19 19 19 19 19 19 19 19 19 19 19 19 19
CC(O)C1(C=CC=CC=1)
InChI=1S/C8H10O/c1-7(9)8-5-3-2-4-6-8/h2-7,9H,1H3/t7-/m1/s1
