17
metacyc CPD-7679  453.30035484 453.30035484 453.30035484 453.30035484 453.30035484 453.30035484 453.30035484 453.30035484 453.30035484 453.30035484 453.30035484 453.30035484 453.30035484 453.30035484 453.30035484
C          0.90652        0.00242       -0.09094
N          2.42848        0.00242       -0.09096
C          2.93579        1.42237       -0.29766
C          2.93581       -0.52855        1.24210
C          2.93579       -0.88655       -1.21733
H          0.56006        0.64532        0.72364
H          0.56006       -1.02448        0.05854
H          0.56005        0.38641       -1.05500
H          2.56210        2.04622        0.51970
H          2.56208        1.78731       -1.25894
H          4.02965        1.40332       -0.29489
H          2.56212        0.12148        2.03879
H          4.02967       -0.52142        1.22420
H          2.56212       -1.54832        1.37369
H          2.56208       -0.49063       -2.16626
H          2.56209       -1.90152       -1.05273
H          4.02965       -0.87463       -1.20222
17 17 17 17 17 17 17 17 17 17 17 17 17 17 17 17 17 17 17 17 17 17 17 17 17 17 17 17 17 17 17 17 17 17 17 17 17 17 17 17 17 17 17 17 17 17
C[N+](C)(C)C
InChI=1S/C4H12N/c1-5(2,3)4/h1-4H3/q+1
