20
metacyc CPD-14225  132.527120528 132.527120528 132.527120528 132.527120528 132.527120528 132.527120528 132.527120528 132.527120528 132.527120528 132.527120528 132.527120528 132.527120528 132.527120528 132.527120528 132.527120528
C          1.10722       -0.00067        0.04965
C          0.50357        1.41196        0.11961
C         -1.03091        1.42846        0.14850
N         -1.55759        0.80360       -1.07323
C         -1.67358        0.75193        1.39306
O         -0.90072        0.60700        2.38909
O         -2.90277        0.46192        1.31374
C          2.64206        0.00759        0.07987
O          3.10961        0.61063        1.29131
C          3.17443       -1.42913       -0.03186
N          4.62923       -1.45424       -0.17029
H          0.77014       -0.50333       -0.86410
H          0.74406       -0.59612        0.89519
H          0.85478        1.98867       -0.74667
H          0.88186        1.93383        1.00720
H         -1.36394        2.47351        0.16174
H          3.01986        0.61076       -0.75452
H          2.48234        0.37132        2.00002
H          2.73952       -1.93017       -0.90261
H          2.90584       -2.00329        0.86177
20 20 20 20 20 20 20 20 20 20 20 20 20 20 20 20 20 20 20 20 20 20 20 20 20 20 20 20 20 20 20 20 20 20 20 20 20 20 20 20 20 20 20 20 20 20 20 20 20 20 20 20 20 20 20
C(CC([N+])C(=O)[O-])C(O)C[N+]
InChI=1S/C6H14N2O3/c7-3-4(9)1-2-5(8)6(10)11/h4-5,9H,1-3,7-8H2,(H,10,11)/p+1/t4-,5-/m0/s1
