20
metacyc CPD-18277  223.09592172 223.09592172 223.09592172 223.09592172 223.09592172 223.09592172 223.09592172 223.09592172 223.09592172 223.09592172 223.09592172 223.09592172 223.09592172 223.09592172 223.09592172
C          0.91088        0.01181       -0.07501
C          2.41097        0.04226       -0.05110
C          3.10571        1.25719       -0.02192
C          4.49735        1.25495       -0.00695
C          5.21291        0.06243       -0.00812
C          4.53781       -1.16506       -0.02353
C          5.32472       -2.44903       -0.08112
O          4.67144       -3.50004        0.62066
C          3.13410       -1.16124       -0.06173
O          5.20865        2.41868        0.00347
H          0.48803        1.02204       -0.07924
H          0.53078       -0.50670        0.81122
H          0.55695       -0.50303       -0.97392
H          2.55548        2.19306       -0.01986
H          6.29931        0.09865       -0.00548
H          6.31022       -2.31828        0.37835
H          5.46488       -2.75503       -1.12247
H          4.41825       -3.13845        1.48677
H          2.59647       -2.10833       -0.10632
H          4.58471        3.16200       -0.03097
20 20 20 20 20 20 20 20 20 20 20 20 20 20 20 20 20 20 20 20 20 20 20 20 20 20 20 20 20 20 20 20 20 20 20 20 20 20 20 20 20 20 20 20 20 20 20 20 20 20 20 20 20 20 20
CC1(=CC(=CC(CO)=C1)O)
InChI=1S/C8H10O2/c1-6-2-7(5-9)4-8(10)3-6/h2-4,9-10H,5H2,1H3
