17
metacyc CPD-19089  134.93904172 134.93904172 134.93904172 134.93904172 134.93904172 134.93904172 134.93904172 134.93904172 134.93904172 134.93904172 134.93904172 134.93904172 134.93904172 134.93904172 134.93904172
C          0.96193       -0.20497        0.01236
C          2.47832       -0.06978        0.08675
C          2.97903        1.37206        0.24883
O          2.55544        2.14462       -0.87797
C          2.49883        2.04226        1.53695
C          4.50790        1.35696        0.21899
H          4.95769        1.36413       -0.78951
O          5.22089        1.25966        1.21472
H          0.68785       -1.25293       -0.14819
H          0.54849        0.37851       -0.81579
H          0.48444        0.12207        0.94057
H          2.89274       -0.49372       -0.83791
H          2.85262       -0.69175        0.90954
H          1.69649        2.55004       -0.66609
H          1.41336        2.18418        1.53912
H          2.93859        3.04167        1.63745
H          2.77712        1.46146        2.42238
17 17 17 17 17 17 17 17 17 17 17 17 17 17 17 17 17 17 17 17 17 17 17 17 17 17 17 17 17 17 17 17 17 17 17 17 17 17 17 17 17 17 17 17 17 17
CCC(O)(C)[CH]=O
InChI=1S/C5H10O2/c1-3-5(2,7)4-6/h4,7H,3H2,1-2H3
