22
metacyc CPD-14605  391.13944088 391.13944088 391.13944088 391.13944088 391.13944088 391.13944088 391.13944088 391.13944088 391.13944088 391.13944088 391.13944088 391.13944088 391.13944088 391.13944088 391.13944088
C          1.19815        0.06473        0.05394
N          0.49078       -1.08616       -0.55106
C          1.37632       -2.00876       -1.30467
C          2.27972       -2.89590       -0.43155
O          1.52592       -3.62187        0.54650
C          0.75832       -2.72926        1.35958
C         -0.19510       -1.88262        0.49859
C          1.77260        1.04942       -0.97899
O          0.76496        1.46096       -1.89679
H          1.99405       -0.24637        0.73711
H          0.46263        0.62895        0.64312
H          1.97915       -1.46697       -2.04032
H          0.72001       -2.66522       -1.89131
H          3.05369       -2.30843        0.07327
H          2.78508       -3.63381       -1.06390
H          1.43687       -2.10596        1.95334
H          0.17938       -3.33691        2.06304
H         -0.80518       -1.23245        1.13665
H         -0.89642       -2.55828       -0.00807
H          2.59736        0.60738       -1.54387
H          2.15546        1.94083       -0.47233
H          0.22141        0.66401       -2.05890
22 22 22 22 22 22 22 22 22 22 22 22 22 22 22 22 22 22 22 22 22 22 22 22 22 22 22 22 22 22 22 22 22 22 22 22 22 22 22 22 22 22 22 22 22 22 22 22 22 22 22 22 22 22 22 22 22 22 22 22 22
C(N1(CCOCC1))CO
InChI=1S/C6H13NO2/c8-4-1-7-2-5-9-6-3-7/h8H,1-6H2
