26
metacyc CPD-14511  684.82929592 684.82929592 684.82929592 684.82929592 684.82929592 684.82929592 684.82929592 684.82929592 684.82929592 684.82929592 684.82929592 684.82929592 684.82929592 684.82929592 684.82929592
C          0.79838        0.85670        1.09875
C          2.28199        0.66177        0.80388
C          2.74156       -0.77261        1.08601
O          2.02578       -1.65573        0.22523
C          4.27936       -0.99721        0.94501
N          4.66306       -2.40439        1.22505
C          4.76328       -3.33192        0.09462
C          5.36322       -2.74017       -1.17689
C          4.75156       -1.39278       -1.52600
C          4.92674       -0.45957       -0.34069
H          0.50042        1.88351        0.86500
H          0.58235        0.67085        2.15615
H          0.17995        0.18421        0.49703
H          2.86505        1.36780        1.40360
H          2.43249        0.90677       -0.25309
H          2.45196       -1.03931        2.11130
H          2.56179       -2.46736        0.32965
H          4.71303       -0.38268        1.74930
H          3.80134       -3.79495       -0.15064
H          5.39502       -4.18215        0.38593
H          5.21895       -3.43851       -2.00983
H          6.44647       -2.62386       -1.05013
H          3.69356       -1.50152       -1.78488
H          5.25601       -0.97632       -2.40487
H          4.56234        0.54102       -0.59039
H          6.00537       -0.33738       -0.15990
26 26 26 26 26 26 26 26 26 26 26 26 26 26 26 26 26 26 26 26 26 26 26 26 26 26 26 26 26 26 26 26 26 26 26 26 26 26 26 26 26 26 26 26 26 26 26 26 26 26 26 26 26 26 26 26 26 26 26 26 26 26 26 26 26 26 26 26 26 26 26 26 26
CCC(O)C1([N+]CCCC1)
InChI=1S/C8H17NO/c1-2-8(10)7-5-3-4-6-9-7/h7-10H,2-6H2,1H3/p+1
