26
metacyc CPD-18228  196.97405912 196.97405912 196.97405912 196.97405912 196.97405912 196.97405912 196.97405912 196.97405912 196.97405912 196.97405912 196.97405912 196.97405912 196.97405912 196.97405912 196.97405912
C          1.03408       -0.18857       -0.06628
C          2.55101        0.03985       -0.05892
C          2.95903        0.55856       -1.44468
C          2.99105        0.99107        1.08458
C          2.64502        0.32400        2.46731
O          3.60480       -0.35168        2.95952
O          1.50274        0.57357        2.94180
N          4.44977        1.27058        1.01164
C          4.99680        2.36122        0.37452
C          6.52233        2.46794        0.51046
C          7.23559        1.29225       -0.13977
N          6.98277        3.70060       -0.13614
O          4.31772        3.16905       -0.25759
H          0.73372       -0.78632       -0.93407
H          0.49180        0.76228       -0.10906
H          0.70509       -0.73458        0.82214
H          3.03706       -0.93505        0.08169
H          2.55018        1.55775       -1.62850
H          2.58964       -0.10472       -2.23443
H          4.04678        0.60087       -1.55428
H          2.46198        1.94852        1.00973
H          4.96376        0.73807        1.71329
H          6.77499        2.52509        1.57411
H          6.90660        1.13997       -1.17494
H          7.04411        0.36310        0.40547
H          8.32354        1.44383       -0.15146
26 26 26 26 26 26 26 26 26 26 26 26 26 26 26 26 26 26 26 26 26 26 26 26 26 26 26 26 26 26 26 26 26 26 26 26 26 26 26 26 26 26 26 26 26 26 26 26 26 26 26 26 26 26 26 26 26 26 26 26 26 26 26 26 26 26 26 26 26 26 26 26 26
CC(C)C(C([O-])=O)NC(C(C)[N+])=O
InChI=1S/C8H16N2O3/c1-4(2)6(8(12)13)10-7(11)5(3)9/h4-6H,9H2,1-3H3,(H,10,11)(H,12,13)/t5-,6-/m0/s1
