25
metacyc CPD-17556  263.076518648 263.076518648 263.076518648 263.076518648 263.076518648 263.076518648 263.076518648 263.076518648 263.076518648 263.076518648 263.076518648 263.076518648 263.076518648 263.076518648 263.076518648
C          0.44256        0.86080        1.64412
O          0.12093        0.38167        0.51876
O         -0.29250        1.46148        2.48761
C          1.93848        0.75435        2.04192
N          2.05258       -0.47609        2.83384
C          2.87410        0.75356        0.81811
C          4.38353        0.92943        1.12014
C          5.21293        1.04077       -0.18126
C          5.58570       -0.30943       -0.80800
C          6.19312       -1.30854        0.18367
O          7.61489       -1.17722        0.18106
C          5.74167       -1.13539        1.59610
C          4.94658       -0.14241        2.01631
H          2.18255        1.61089        2.68211
H          2.56807        1.58896        0.17165
H          2.71600       -0.15587        0.22371
H          4.49836        1.88780        1.64465
H          6.14059        1.58567        0.04048
H          4.67610        1.64519       -0.92380
H          6.29155       -0.12759       -1.62885
H          4.68522       -0.74851       -1.25280
H          5.96801       -2.32703       -0.15117
H          7.81194       -0.35748        0.66376
H          6.08524       -1.87553        2.31311
H          4.66829       -0.10056        3.06777
25 25 25 25 25 25 25 25 25 25 25 25 25 25 25 25 25 25 25 25 25 25 25 25 25 25 25 25 25 25 25 25 25 25 25 25 25 25 25 25 25 25 25 25 25 25 25 25 25 25 25 25 25 25 25 25 25 25 25 25 25 25 25 25 25 25 25 25 25 25
C(=O)([O-])C([N+])CC1(CCC(O)C=C1)
InChI=1S/C9H15NO3/c10-8(9(12)13)5-6-1-3-7(11)4-2-6/h1,3,6-8,11H,2,4-5,10H2,(H,12,13)/t6-,7+,8+/m1/s1
