15
metacyc CPD-19704  485.33969048 485.33969048 485.33969048 485.33969048 485.33969048 485.33969048 485.33969048 485.33969048 485.33969048 485.33969048 485.33969048 485.33969048 485.33969048 485.33969048 485.33969048
C          1.04193        0.07670        0.00005
C          2.51887        0.14658        0.00566
C          3.33946        1.25547        0.00761
N          4.60965        0.75662        0.01453
C          5.83252        1.51632        0.02090
C          4.52435       -0.60457        0.01547
N          3.27296       -1.00426        0.01027
H          0.59631        1.07636       -0.00147
H          0.68365       -0.45573        0.88642
H          0.69020       -0.45566       -0.88898
H          3.12340        2.31459        0.00523
H          5.60046        2.58432        0.01760
H          6.40573        1.25781       -0.87305
H          6.39419        1.26093        0.92303
H          5.39188       -1.25136        0.02024
15 15 15 15 15 15 15 15 15 15 15 15 15 15 15 15 15 15 15 15 15 15 15 15 15 15 15 15 15 15 15 15 15 15 15 15 15 15 15 15
CC1(=CN(C)C=N1)
InChI=1S/C5H8N2/c1-5-3-7(2)4-6-5/h3-4H,1-2H3
