10
metacyc CPD-13300  315.0786304 315.0786304 315.0786304 315.0786304 315.0786304 315.0786304 315.0786304 315.0786304 315.0786304 315.0786304 315.0786304 315.0786304 315.0786304 315.0786304 315.0786304
C         -1.19515       -0.00617       -0.00008
C         -0.36461        1.14002        0.00025
C          0.94063        0.70103        0.00043
N          0.92640       -0.66947        0.00022
C         -0.37151       -1.10978       -0.00009
H         -2.27730       -0.02431       -0.00028
H         -0.68437        2.17401        0.00035
H          1.87573        1.24472        0.00068
H          1.74582       -1.26323        0.00028
H         -0.59696       -2.16771       -0.00029
10 10 10 10 10 10 10 10 10 10 10 10 10 10 10 10 10 10 10 10 10 10 10 10 10
C1(C=CNC=1)
InChI=1S/C4H5N/c1-2-4-5-3-1/h1-5H
