30
metacyc CPD-16884  1088.20162312 1088.20162312 1088.20162312 1088.20162312 1088.20162312 1088.20162312 1088.20162312 1088.20162312 1088.20162312 1088.20162312 1088.20162312 1088.20162312 1088.20162312 1088.20162312 1088.20162312
C          0.91706       -0.06643       -0.07637
N          0.42819       -0.60593       -1.34220
C         -0.83358       -0.76706       -1.47686
N         -1.83155       -0.52768       -0.59903
N         -1.33340       -1.23906       -2.63768
C          2.44487       -0.07375       -0.08749
C          3.00112        0.59869        1.17078
C          4.53053        0.61225        1.18271
C          5.06491        1.30009        2.44372
C          6.59351        1.31796        2.46871
C          7.11050        2.00626        3.73011
N          8.56653        2.01180        3.73223
H          0.55878       -0.66454        0.77041
H          0.56309        0.96447        0.04531
H         -1.58221        0.08037        0.17019
H         -2.69925       -0.24507       -1.03180
H         -0.59846       -1.66244       -3.19692
H         -2.12968       -1.85104       -2.53836
H          2.81407        0.44733       -0.97925
H          2.80950       -1.10684       -0.15175
H          2.63260        0.07316        2.06010
H          2.62753        1.62865        1.22817
H          4.90040        1.13553        0.29320
H          4.90819       -0.41671        1.13526
H          4.68610        0.77717        3.33018
H          4.68181        2.32819        2.48622
H          6.96576        1.84150        1.58010
H          6.97028        0.28894        2.42279
H          6.75158        1.48616        4.62355
H          6.74910        3.03943        3.78001
30 30 30 30 30 30 30 30 30 30 30 30 30 30 30 30 30 30 30 30 30 30 30 30 30 30 30 30 30 30 30 30 30 30 30 30 30 30 30 30 30 30 30 30 30 30 30 30 30 30 30 30 30 30 30 30 30 30 30 30 30 30 30 30 30 30 30 30 30 30 30 30 30 30 30 30 30 30 30 30 30 30 30 30 30
C([N+]=C(N)N)CCCCCC[N+]
InChI=1S/C8H20N4/c9-6-4-2-1-3-5-7-12-8(10)11/h1-7,9H2,(H4,10,11,12)/p+2
