16
metacyc CPD-3642  110.8438878 110.8438878 110.8438878 110.8438878 110.8438878 110.8438878 110.8438878 110.8438878 110.8438878 110.8438878 110.8438878 110.8438878 110.8438878 110.8438878 110.8438878
C          0.96969       -0.08885       -0.03852
C          2.50388       -0.06927       -0.01674
C          3.02078        0.23836       -1.42867
C          3.10305        0.90580        1.02084
N          2.60983        2.27659        0.81019
C          2.91075        0.55815        2.52435
O          2.26331       -0.50053        2.77585
O          3.49029        1.33035        3.34609
H          0.60860       -0.81568       -0.77501
H          0.55247        0.88627       -0.30978
H          0.55183       -0.37598        0.92988
H          2.84087       -1.08383        0.23715
H          2.68864        1.22215       -1.77766
H          2.65817       -0.50757       -2.14425
H          4.11501        0.21834       -1.45529
H          4.19126        0.92410        0.87406
16 16 16 16 16 16 16 16 16 16 16 16 16 16 16 16 16 16 16 16 16 16 16 16 16 16 16 16 16 16 16 16 16 16 16 16 16 16 16 16 16 16 16
CC(C)C([N+])C([O-])=O
InChI=1S/C5H11NO2/c1-3(2)4(6)5(7)8/h3-4H,6H2,1-2H3,(H,7,8)/t4-/m1/s1
