13
metacyc CPD-19062  258.441357928 258.441357928 258.441357928 258.441357928 258.441357928 258.441357928 258.441357928 258.441357928 258.441357928 258.441357928 258.441357928 258.441357928 258.441357928 258.441357928 258.441357928
C          1.08493        0.39904        0.32729
C          2.26887       -0.01876       -0.13975
C          3.09613        0.67235       -1.19080
O          2.77088        2.05689       -1.24602
C          4.59135        0.53820       -0.92684
H          0.54531       -0.17270        1.07687
H          0.60820        1.29775       -0.05366
H          2.66918       -0.95469        0.24884
H          2.86841        0.23367       -2.16793
H          2.85642        2.40044       -0.34038
H          4.86870        0.99081        0.03305
H          5.16100        1.06560       -1.69910
H          4.90364       -0.51020       -0.92088
13 13 13 13 13 13 13 13 13 13 13 13 13 13 13 13 13 13 13 13 13 13 13 13 13 13 13 13 13 13 13 13 13 13
C=CC(O)C
InChI=1S/C4H8O/c1-3-4(2)5/h3-5H,1H2,2H3
