26
metacyc CPD-21093  148.34261124 148.34261124 148.34261124 148.34261124 148.34261124 148.34261124 148.34261124 148.34261124 148.34261124 148.34261124 148.34261124 148.34261124 148.34261124 148.34261124 148.34261124
C          0.90130       -0.28546        0.08285
C          2.42206       -0.25247        0.02100
C          2.90094        1.01823       -0.68189
C          4.43160        1.10109       -0.75407
C          4.94564        2.36994       -1.47084
C          6.47825        2.36452       -1.56630
O          4.46252        2.27899       -2.83527
C          4.42778        3.68656       -0.87820
C          4.74531        4.03325        0.57424
O          5.53062        3.26268        1.19182
O          4.17617        5.08366        0.99221
H          0.55888       -1.18934        0.59237
H          0.46896       -0.27468       -0.92341
H          0.51350        0.58185        0.62874
H          2.78477       -1.13731       -0.51332
H          2.82907       -0.29279        1.03696
H          2.50416        1.88239       -0.13824
H          2.48068        1.05029       -1.69446
H          4.78984        0.21773       -1.30092
H          4.84662        1.02975        0.25650
H          6.82527        1.52863       -2.18308
H          6.96592        2.29427       -0.59109
H          6.83490        3.27740       -2.06046
H          5.00067        2.89164       -3.36326
H          3.33575        3.74186       -1.00533
H          4.80572        4.51787       -1.48866
26 26 26 26 26 26 26 26 26 26 26 26 26 26 26 26 26 26 26 26 26 26 26 26 26 26 26 26 26 26 26 26 26 26 26 26 26 26 26 26 26 26 26 26 26 26 26 26 26 26 26 26 26 26 26 26 26 26 26 26 26 26 26 26 26 26 26 26 26 26 26 26 26
CCCCC(C)(O)CC([O-])=O
InChI=1S/C8H16O3/c1-3-4-5-8(2,11)6-7(9)10/h11H,3-6H2,1-2H3,(H,9,10)/p-1
