19
metacyc CPD-7703  284.113474 284.113474 284.113474 284.113474 284.113474 284.113474 284.113474 284.113474 284.113474 284.113474 284.113474 284.113474 284.113474 284.113474 284.113474
C          1.07011       -0.37257        0.14709
C          2.57482       -0.14007        0.25246
C          2.95558        1.30221        0.63294
C          2.50995        2.36900       -0.38761
C          2.96613        3.77464       -0.01385
C          2.32394        4.28781        1.27086
O          1.19094        3.80992        1.55227
O          3.01037        5.14589        1.89368
N          3.08279        2.05220       -1.70508
N          3.10658       -1.06175        1.26081
H          0.61025        0.28907       -0.59240
H          0.56647       -0.20911        1.10632
H          0.86051       -1.39917       -0.17287
H          3.03938       -0.40533       -0.70300
H          4.04607        1.36018        0.75708
H          2.52696        1.53179        1.61534
H          1.41892        2.35641       -0.49258
H          2.68387        4.48381       -0.80333
H          4.05859        3.81523        0.08214
19 19 19 19 19 19 19 19 19 19 19 19 19 19 19 19 19 19 19 19 19 19 19 19 19 19 19 19 19 19 19 19 19 19 19 19 19 19 19 19 19 19 19 19 19 19 19 19 19 19 19 19
CC(CC(CC([O-])=O)[N+])[N+]
InChI=1S/C6H14N2O2/c1-4(7)2-5(8)3-6(9)10/h4-5H,2-3,7-8H2,1H3,(H,9,10)/p+1/t4-,5-/m1/s1
