28
metacyc CPD-12506  227.0842988 227.0842988 227.0842988 227.0842988 227.0842988 227.0842988 227.0842988 227.0842988 227.0842988 227.0842988 227.0842988 227.0842988 227.0842988 227.0842988 227.0842988
C          1.37971        0.05912        0.06299
N          2.81422        0.00203        0.06688
C          3.58924       -1.18070        0.07113
O          3.19027       -2.33243        0.07259
N          4.93199       -0.72722        0.07395
C          6.09061       -1.57309        0.08146
C          4.94132        0.64479        0.07174
C          3.67643        1.07068        0.06819
C          3.41433        2.51089        0.06610
O          2.26961        2.95386        0.06202
N          4.57281        3.28178        0.06930
C          4.44237        4.72777        0.06930
C          5.83356        2.69296        0.07156
O          6.85742        3.59008        0.07198
C          8.18568        3.05167        0.07189
N          6.05742        1.41567        0.07291
H          0.96072       -0.95118        0.06024
H          1.03988        0.58675       -0.83258
H          1.03522        0.58349        0.95878
H          5.79464       -2.62546        0.08121
H          6.68044       -1.36699        0.97927
H          6.69106       -1.36922       -0.80975
H          3.39790        5.04922        0.06907
H          4.93802        5.13006       -0.81992
H          4.93748        5.13003        0.95881
H          8.88764        3.89057        0.07136
H          8.35992        2.45682       -0.83009
H          8.36023        2.45757        0.97428
28 28 28 28 28 28 28 28 28 28 28 28 28 28 28 28 28 28 28 28 28 28 28 28 28 28 28 28 28 28 28 28 28 28 28 28 28 28 28 28 28 28 28 28 28 28 28 28 28 28 28 28 28 28 28 28 28 28 28 28 28 28 28 28 28 28 28 28 28 28 28 28 28 28 28 28 28 28 28
CN1(C(=O)N(C)C2(=C1C(=O)N(C)C(OC)=N2))
InChI=1S/C9H12N4O3/c1-11-5-6(12(2)9(11)15)10-8(16-4)13(3)7(5)14/h1-4H3
