20
metacyc CPD-14650  400.28834264 400.28834264 400.28834264 400.28834264 400.28834264 400.28834264 400.28834264 400.28834264 400.28834264 400.28834264 400.28834264 400.28834264 400.28834264 400.28834264 400.28834264
C          1.00660        0.06490       -0.02529
C          2.51190        0.07515       -0.10697
C          3.11380        0.62465       -1.30976
C          2.90365        1.87346       -1.74697
C          3.58819        2.34587       -2.96556
O          3.45375        3.49433       -3.36937
C          3.23453       -0.44419        0.90496
C          4.67859       -0.49526        0.99686
C          5.31031       -1.03192        2.04709
O          6.66939       -1.09589        2.18803
H          0.53403        0.49564       -0.91424
H          0.66335        0.63546        0.84439
H          0.64099       -0.96406        0.06695
H          3.79269       -0.04243       -1.83848
H          2.26677        2.58881       -1.24086
H          4.22631        1.61286       -3.48652
H          2.69580       -0.85356        1.76063
H          5.25771       -0.06804        0.18469
H          4.81608       -1.47362        2.90491
H          7.08724       -0.68033        1.41416
20 20 20 20 20 20 20 20 20 20 20 20 20 20 20 20 20 20 20 20 20 20 20 20 20 20 20 20 20 20 20 20 20 20 20 20 20 20 20 20 20 20 20 20 20 20 20 20 20 20 20 20 20 20 20
CC(C=CC=O)=CC=CO
InChI=1S/C8H10O2/c1-8(4-2-6-9)5-3-7-10/h2-7,9H,1H3/b5-3+,6-2+,8-4+
