17
metacyc CPD-6361  293.37304256 293.37304256 293.37304256 293.37304256 293.37304256 293.37304256 293.37304256 293.37304256 293.37304256 293.37304256 293.37304256 293.37304256 293.37304256 293.37304256 293.37304256
C         -2.41793       -0.40020        0.01421
C         -1.38078       -1.52978        0.02199
C         -0.08820       -0.76989        0.01316
C         -0.35632        0.59751        0.00434
N         -1.72594        0.80490        0.00504
C          0.64021        1.54893       -0.00400
C          1.95995        1.09071       -0.00401
C          2.24377       -0.28850        0.00397
C          1.21336       -1.23418        0.01280
O         -3.63129       -0.52536        0.01586
H         -1.49210       -2.13758       -0.87925
H         -1.48874       -2.12138        0.93436
H         -2.18820        1.70113       -0.00138
H          0.41859        2.60950       -0.01042
H          2.77959        1.80581       -0.01054
H          3.27972       -0.62134        0.00319
H          1.43513       -2.29636        0.01894
17 17 17 17 17 17 17 17 17 17 17 17 17 17 17 17 17 17 17 17 17 17 17 17 17 17 17 17 17 17 17 17 17 17 17 17 17 17 17 17 17 17 17 17 17 17
C1(CC2(C(N1)=CC=CC=2))(=O)
InChI=1S/C8H7NO/c10-8-5-6-3-1-2-4-7(6)9-8/h1-4H,5H2,(H,9,10)
