17
metacyc CPD-12151  146.44039748 146.44039748 146.44039748 146.44039748 146.44039748 146.44039748 146.44039748 146.44039748 146.44039748 146.44039748 146.44039748 146.44039748 146.44039748 146.44039748 146.44039748
C          0.38750       -0.35035        1.04552
N          0.54534        0.97891        0.72810
C         -0.10813        1.13950       -0.40230
N         -0.65153       -0.03082       -0.84108
C         -0.36254       -0.99976        0.09119
C         -0.82944       -2.41005       -0.08412
C         -2.35317       -2.56135       -0.08479
C         -3.09676       -1.86795       -1.25492
O         -2.38398       -1.49372       -2.23805
O         -4.33101       -1.65417       -1.06801
N         -2.67770       -3.99411       -0.17850
H          0.82135       -0.76809        1.94327
H         -0.22587        2.06483       -0.94722
H         -1.22300       -0.18773       -1.67530
H         -0.40663       -3.01218        0.73288
H         -0.39777       -2.80813       -1.01186
H         -2.76166       -2.17441        0.85665
17 17 17 17 17 17 17 17 17 17 17 17 17 17 17 17 17 17 17 17 17 17 17 17 17 17 17 17 17 17 17 17 17 17 17 17 17 17 17 17 17 17 17 17 17 17
C1(N=CNC=1CC(C([O-])=O)[N+])
InChI=1S/C6H9N3O2/c7-5(6(10)11)1-4-2-8-3-9-4/h2-3,5H,1,7H2,(H,8,9)(H,10,11)/t5-/m1/s1
