18
metacyc CPD-101  199.205285904 199.205285904 199.205285904 199.205285904 199.205285904 199.205285904 199.205285904 199.205285904 199.205285904 199.205285904 199.205285904 199.205285904 199.205285904 199.205285904 199.205285904
C         -1.50718        0.66694        0.13324
O         -1.46311       -0.67951        0.01688
C         -0.31560       -1.42277        0.46302
C          0.90605       -1.21648       -0.41660
C          1.74187       -0.00654       -0.00026
C          0.93831        1.21507        0.43834
C         -0.31430        1.42692       -0.39061
O         -2.51874        1.23895        0.52581
H         -0.61237       -2.47592        0.40979
H         -0.12093       -1.20322        1.51877
H          0.59763       -1.10662       -1.46319
H          1.54986       -2.10239       -0.36383
H          2.39511        0.26695       -0.83808
H          2.40959       -0.29127        0.82275
H          1.58559        2.09686        0.35751
H          0.67626        1.12247        1.49974
H         -0.17091        1.19157       -1.45082
H         -0.58042        2.49095       -0.35092
18 18 18 18 18 18 18 18 18 18 18 18 18 18 18 18 18 18 18 18 18 18 18 18 18 18 18 18 18 18 18 18 18 18 18 18 18 18 18 18 18 18 18 18 18 18 18 18 18
C1(OCCCCC1)=O
InChI=1S/C6H10O2/c7-6-4-2-1-3-5-8-6/h1-5H2
