17
metacyc CPD-9285  524.8972348 524.8972348 524.8972348 524.8972348 524.8972348 524.8972348 524.8972348 524.8972348 524.8972348 524.8972348 524.8972348 524.8972348 524.8972348 524.8972348 524.8972348
C          0.95662       -0.02458       -0.07573
C          2.47674       -0.00889       -0.09883
C          3.01004        0.79082       -1.28718
C          4.53823        0.80455       -1.30791
C          5.07172        1.59937       -2.48917
H          0.59635       -0.60157        0.78171
H          0.55518       -0.48183       -0.98578
H          0.55502        0.99058        0.00494
H          2.84631       -1.03978       -0.14749
H          2.84618        0.42453        0.83787
H          2.63393        1.81991       -1.23603
H          2.63378        0.35595       -2.22123
H          4.91939       -0.22177       -1.36351
H          4.91957        1.24254       -0.37814
H          4.73446        1.16756       -3.43689
H          6.16615        1.59638       -2.48489
H          4.73461        2.63994       -2.44615
17 17 17 17 17 17 17 17 17 17 17 17 17 17 17 17 17 17 17 17 17 17 17 17 17 17 17 17 17 17 17 17 17 17 17 17 17 17 17 17 17 17 17 17 17 17
CCCCC
InChI=1S/C5H12/c1-3-5-4-2/h3-5H2,1-2H3
