20
metacyc CPD-597  415.277162816 415.277162816 415.277162816 415.277162816 415.277162816 415.277162816 415.277162816 415.277162816 415.277162816 415.277162816 415.277162816 415.277162816 415.277162816 415.277162816 415.277162816
C          0.90563       -0.05000       -0.04345
C          0.39733        1.26401       -0.62951
C         -1.13213        1.31513       -0.65248
C         -1.62759        2.63114       -1.25266
N         -3.07239        2.68137       -1.32444
C         -3.83292        3.13417       -0.29003
N         -5.16288        3.03944       -0.53657
O         -3.40337        3.58253        0.76380
N          2.36275       -0.06307       -0.05006
H          0.54042       -0.89881       -0.63073
H          0.55092       -0.17593        0.98450
H          0.78002        1.38579       -1.65105
H          0.78102        2.10640       -0.03968
H         -1.52342        1.19756        0.36558
H         -1.52258        0.47331       -1.23809
H         -1.25374        2.74947       -2.27534
H         -1.26897        3.47762       -0.65706
H         -3.53434        2.24487       -2.10622
H         -5.52708        2.89001       -1.46411
H         -5.77302        3.46813        0.14753
20 20 20 20 20 20 20 20 20 20 20 20 20 20 20 20 20 20 20 20 20 20 20 20 20 20 20 20 20 20 20 20 20 20 20 20 20 20 20 20 20 20 20 20 20 20 20 20 20 20 20 20 20 20 20
C(CCCNC(N)=O)[N+]
InChI=1S/C5H13N3O/c6-3-1-2-4-8-5(7)9/h1-4,6H2,(H3,7,8,9)/p+1
