28
metacyc CPD-15313  109.425482512 109.425482512 109.425482512 109.425482512 109.425482512 109.425482512 109.425482512 109.425482512 109.425482512 109.425482512 109.425482512 109.425482512 109.425482512 109.425482512 109.425482512
C          2.99623        0.50516        3.96898
C          2.54044        1.10463        2.64476
O          2.86802        2.50071        2.61132
C          3.11123        0.36810        1.40876
O          2.64076        1.00870        0.21778
C          4.62572        0.35134        1.38096
N          5.28135        1.54945        1.42236
C          6.63656        1.48605        1.39819
N          7.29173        2.72648        1.39318
C          8.58447        2.72376        1.35627
N          9.28054        3.87989        1.30472
N          9.31777        1.57261        1.36114
C          8.76999        0.31019        1.36574
O          9.48047       -0.68861        1.36965
C          7.29547        0.26460        1.36700
N          6.66299       -0.94012        1.34257
C          5.31324       -0.86081        1.33699
H          2.53112        1.03523        4.80554
H          4.07801        0.60487        4.10508
H          2.72993       -0.55487        4.03544
H          1.44606        1.06126        2.59380
H          3.83468        2.56931        2.45932
H          2.72513       -0.65763        1.39295
H          2.80017        1.96362        0.35973
H          8.75062        4.73252        1.44903
H         10.27053        3.92448        1.49589
H         10.32402        1.60772        1.33396
H          4.79471       -1.81381        1.30510
28 28 28 28 28 28 28 28 28 28 28 28 28 28 28 28 28 28 28 28 28 28 28 28 28 28 28 28 28 28 28 28 28 28 28 28 28 28 28 28 28 28 28 28 28 28 28 28 28 28 28 28 28 28 28 28 28 28 28 28 28 28 28 28 28 28 28 28 28 28 28 28 28 28 28 28 28 28 28
CC(O)C(O)C1(=NC2(N=C(N)NC(=O)C(N=C1)=2))
InChI=1S/C9H11N5O3/c1-3(15)6(16)4-2-11-5-7(12-4)13-9(10)14-8(5)17/h2-3,6,15-16H,1H3,(H3,10,12,13,14,17)/t3-,6-/m1/s1
