21
metacyc CPD-15285  268.16226688 268.16226688 268.16226688 268.16226688 268.16226688 268.16226688 268.16226688 268.16226688 268.16226688 268.16226688 268.16226688 268.16226688 268.16226688 268.16226688 268.16226688
C          3.09961        2.82725        2.14331
N          2.61791        1.99778        1.04893
C          2.93321        0.53317        1.21507
C          2.44084       -0.08565        2.55403
C          0.96697       -0.05461        2.83598
C         -0.05771        0.39726        2.03307
N         -1.19161        0.23917        2.75417
C         -0.84917       -0.30813        3.95482
N          0.44565       -0.50435        4.04775
C          2.50967       -0.48705        0.09167
O          1.70105       -0.11738       -0.81375
O          3.06237       -1.63644        0.18543
H          3.17733        3.87377        1.82831
H          4.08837        2.53697        2.51045
H          2.41024        2.81699        2.99705
H          4.03192        0.44444        1.22341
H          2.94110        0.42469        3.38804
H          2.76523       -1.13218        2.62741
H         -0.02587        0.82324        1.03654
H         -2.11532        0.49627        2.44789
H         -1.57786       -0.53549        4.71741
21 21 21 21 21 21 21 21 21 21 21 21 21 21 21 21 21 21 21 21 21 21 21 21 21 21 21 21 21 21 21 21 21 21 21 21 21 21 21 21 21 21 21 21 21 21 21 21 21 21 21 21 21 21 21 21 21 21
C[N+]C(CC1(=CNC=N1))C(=O)[O-]
InChI=1S/C7H11N3O2/c1-8-6(7(11)12)2-5-3-9-4-10-5/h3-4,6,8H,2H2,1H3,(H,9,10)(H,11,12)/t6-/m0/s1
