22
metacyc CPD-15901  597.65695296 597.65695296 597.65695296 597.65695296 597.65695296 597.65695296 597.65695296 597.65695296 597.65695296 597.65695296 597.65695296 597.65695296 597.65695296 597.65695296 597.65695296
C          0.99726       -0.01666       -0.06167
C          2.49517       -0.03634       -0.05919
N          3.11553        1.17006       -0.05866
C          4.47367        1.17007       -0.05521
C          5.12807        2.51719       -0.05641
C          5.20139       -0.02122       -0.05145
C          6.69799       -0.07709       -0.04519
N          4.57805       -1.22841       -0.05289
C          3.22132       -1.22733       -0.05719
C          2.55273       -2.56789       -0.06019
H          0.62244        1.01231       -0.06213
H          0.60659       -0.51449        0.83105
H          0.60937       -0.51448       -0.95558
H          4.37702        3.31434       -0.06014
H          5.74825        2.64037       -0.94960
H          5.74387        2.64440        0.83920
H          7.16792        0.90909       -0.04427
H          7.04941       -0.61373       -0.93238
H          7.04182       -0.61159        0.84627
H          3.29570       -3.37241       -0.05895
H          1.93443       -2.68507       -0.95540
H          1.92933       -2.68673        0.83121
22 22 22 22 22 22 22 22 22 22 22 22 22 22 22 22 22 22 22 22 22 22 22 22 22 22 22 22 22 22 22 22 22 22 22 22 22 22 22 22 22 22 22 22 22 22 22 22 22 22 22 22 22 22 22 22 22 22 22 22 22
CC1(=NC(C)=C(C)N=C(C)1)
InChI=1S/C8H12N2/c1-5-6(2)10-8(4)7(3)9-5/h1-4H3
