16
metacyc CPD-12763  388.15549576 388.15549576 388.15549576 388.15549576 388.15549576 388.15549576 388.15549576 388.15549576 388.15549576 388.15549576 388.15549576 388.15549576 388.15549576 388.15549576 388.15549576
C          0.91242       -0.00259        0.07795
N          0.43698       -1.37424        0.19888
C          2.43876        0.01866        0.07638
C          2.96890        1.44753       -0.04896
C          4.49404        1.48146       -0.05184
C          5.03732        2.88492       -0.17477
H          6.13862        2.95931       -0.18123
O          4.34565        3.89372       -0.26317
H          0.52202        0.58697        0.91385
H          0.52250        0.43139       -0.84853
H          2.81888       -0.58650       -0.75646
H          2.81850       -0.43200        1.00228
H          2.58850        2.05599        0.78103
H          2.58862        1.90208       -0.97238
H          4.88919        0.89979       -0.89165
H          4.88908        1.05469        0.87636
16 16 16 16 16 16 16 16 16 16 16 16 16 16 16 16 16 16 16 16 16 16 16 16 16 16 16 16 16 16 16 16 16 16 16 16 16 16 16 16 16 16 16
C([N+])CCC[CH]=O
InChI=1S/C5H11NO/c6-4-2-1-3-5-7/h5H,1-4,6H2/p+1
