31
metacyc CPD-568  879.3828692 879.3828692 879.3828692 879.3828692 879.3828692 879.3828692 879.3828692 879.3828692 879.3828692 879.3828692 879.3828692 879.3828692 879.3828692 879.3828692 879.3828692
C          0.94246        0.26174       -3.19920
C          2.42702        0.04640       -3.08994
O          2.89597       -1.01112       -2.68725
N          3.15710        1.13280       -3.50680
C          4.61127        1.16466       -3.48326
C          5.14347        1.72714       -2.16485
C          6.67686        1.74503       -2.11900
N          7.20116        2.63251       -3.15317
C          8.65697        2.59721       -3.22459
C          9.15406        3.54685       -4.32206
C          8.71254        5.00883       -4.16202
C          9.15536        5.61767       -2.83692
N          8.80590        7.03692       -2.79084
H          0.41791       -0.63627       -2.86056
H          0.67425        0.45298       -4.24187
H          0.63826        1.10512       -2.57368
H          2.69390        2.00636       -3.71053
H          4.91218        1.79392       -4.32796
H          4.99433        0.15310       -3.65364
H          4.77210        1.11554       -1.33231
H          4.74932        2.73986       -2.00857
H          7.04394        0.71665       -2.23077
H          6.98420        2.07954       -1.11985
H          9.02277        1.58954       -3.46260
H          9.12228        2.86777       -2.26904
H          8.80589        3.18660       -5.29922
H         10.25019        3.50486       -4.34968
H          7.62192        5.08387       -4.26098
H          9.13578        5.58430       -4.99459
H         10.24085        5.52580       -2.72580
H          8.68727        5.11502       -1.98608
31 31 31 31 31 31 31 31 31 31 31 31 31 31 31 31 31 31 31 31 31 31 31 31 31 31 31 31 31 31 31 31 31 31 31 31 31 31 31 31 31 31 31 31 31 31 31 31 31 31 31 31 31 31 31 31 31 31 31 31 31 31 31 31 31 31 31 31 31 31 31 31 31 31 31 31 31 31 31 31 31 31 31 31 31 31 31 31
CC(=O)NCCC[N+]CCCC[N+]
InChI=1S/C9H21N3O/c1-9(13)12-8-4-7-11-6-3-2-5-10/h11H,2-8,10H2,1H3,(H,12,13)/p+2
