18
metacyc CPD-10598  170.24262956 170.24262956 170.24262956 170.24262956 170.24262956 170.24262956 170.24262956 170.24262956 170.24262956 170.24262956 170.24262956 170.24262956 170.24262956 170.24262956 170.24262956
C          1.39033        0.37621       -0.80159
C          2.57043        0.03900        0.07160
O          2.96365       -1.11978        0.18681
C          3.26500        1.13944        0.80537
C          2.84164        2.47366        0.72842
C          3.53104        3.47276        1.42441
C          4.63878        3.13399        2.19521
O          5.34360        4.07781        2.87978
C          5.06411        1.81493        2.28882
C          4.37887        0.81684        1.59354
H          1.04646       -0.53155       -1.30761
H          1.67772        1.09868       -1.56982
H          0.56831        0.75977       -0.19185
H          1.97976        2.76296        0.13454
H          3.19058        4.50141        1.35364
H          4.96956        4.95301        2.68709
H          5.92816        1.56204        2.89729
H          4.72069       -0.21420        1.66836
18 18 18 18 18 18 18 18 18 18 18 18 18 18 18 18 18 18 18 18 18 18 18 18 18 18 18 18 18 18 18 18 18 18 18 18 18 18 18 18 18 18 18 18 18 18 18 18 18
CC(=O)C1(C=CC(O)=CC=1)
InChI=1S/C8H8O2/c1-6(9)7-2-4-8(10)5-3-7/h2-5,10H,1H3
