20
metacyc CPD-19228  448.3206208 448.3206208 448.3206208 448.3206208 448.3206208 448.3206208 448.3206208 448.3206208 448.3206208 448.3206208 448.3206208 448.3206208 448.3206208 448.3206208 448.3206208
C          0.77939       -0.76100       -1.57300
O          0.15707        0.26969       -1.34158
C          2.28233       -0.86376       -1.62086
C          2.95892        0.48017       -1.36373
C          4.46596        0.38274       -1.39344
C          5.13642       -0.01182       -2.56018
C          6.52909       -0.10288       -2.58307
C          7.26782        0.21176       -1.44495
C          6.61457        0.62162       -0.28454
C          5.22094        0.70689       -0.25808
H          0.24239       -1.70557       -1.76788
H          2.54556       -1.25768       -2.60857
H          2.59002       -1.60244       -0.87231
H          2.63004        0.87174       -0.39223
H          2.64104        1.22023       -2.10906
H          4.57954       -0.24714       -3.46391
H          7.03760       -0.41527       -3.49134
H          8.35224        0.14412       -1.46409
H          7.19054        0.87886        0.60055
H          4.73005        1.03481        0.65573
20 20 20 20 20 20 20 20 20 20 20 20 20 20 20 20 20 20 20 20 20 20 20 20 20 20 20 20 20 20 20 20 20 20 20 20 20 20 20 20 20 20 20 20 20 20 20 20 20 20 20 20 20 20 20
C(=O)CCC1(C=CC=CC=1)
InChI=1S/C9H10O/c10-8-4-7-9-5-2-1-3-6-9/h1-3,5-6,8H,4,7H2
