15
metacyc CPD-11435  234.388064928 234.388064928 234.388064928 234.388064928 234.388064928 234.388064928 234.388064928 234.388064928 234.388064928 234.388064928 234.388064928 234.388064928 234.388064928 234.388064928 234.388064928
C          1.10423       -0.05243        0.00306
C          2.62844       -0.09978        0.07822
C          3.09026       -0.54487        1.46171
N          3.16172       -0.99491       -0.93759
C          3.41389       -0.57470       -2.21836
O          3.29529        0.56763       -2.63570
H          0.69731        0.63116        0.75553
H          0.66811       -1.04361        0.17021
H          0.77026        0.29228       -0.98152
H          3.01641        0.90760       -0.11480
H          2.74242       -1.55825        1.69141
H          2.71361        0.13030        2.23694
H          4.18416       -0.55114        1.51977
H          3.17873       -1.98964       -0.75276
H          3.75154       -1.40507       -2.86088
15 15 15 15 15 15 15 15 15 15 15 15 15 15 15 15 15 15 15 15 15 15 15 15 15 15 15 15 15 15 15 15 15 15 15 15 15 15 15 15
CC(C)NC=O
InChI=1S/C4H9NO/c1-4(2)5-3-6/h3-4H,1-2H3,(H,5,6)
