21
metacyc CPD-7659  719.16106608 719.16106608 719.16106608 719.16106608 719.16106608 719.16106608 719.16106608 719.16106608 719.16106608 719.16106608 719.16106608 719.16106608 719.16106608 719.16106608 719.16106608
C          5.41049       -0.31445       -1.10845
C          4.39292        0.79883       -1.34755
C          2.93745        0.30409       -1.34756
C          2.62042       -0.64200       -2.48266
C          2.69284       -2.02839       -2.29082
C          2.42881       -2.90374       -3.34459
C          2.08221       -2.40371       -4.59819
C          2.00122       -1.02635       -4.79829
C          2.27251       -0.14784       -3.74716
N          4.54671        1.79082       -0.28118
H          5.41049       -1.03420       -1.93324
H          5.20231       -0.86035       -0.18126
H          6.42674        0.09042       -1.04039
H          4.62185        1.28779       -2.30117
H          2.25399        1.16213       -1.41957
H          2.69502       -0.18155       -0.39249
H          2.96377       -2.43565       -1.31949
H          2.49503       -3.97693       -3.18752
H          1.87454       -3.08560       -5.41747
H          1.72587       -0.63642       -5.77483
H          2.20471        0.92385       -3.92206
21 21 21 21 21 21 21 21 21 21 21 21 21 21 21 21 21 21 21 21 21 21 21 21 21 21 21 21 21 21 21 21 21 21 21 21 21 21 21 21 21 21 21 21 21 21 21 21 21 21 21 21 21 21 21 21 21 21
CC(CC1(C=CC=CC=1))[N+]
InChI=1S/C9H13N/c1-8(10)7-9-5-3-2-4-6-9/h2-6,8H,7,10H2,1H3/p+1/t8-/m1/s1
