15
metacyc CPD-7789  295.47516784 295.47516784 295.47516784 295.47516784 295.47516784 295.47516784 295.47516784 295.47516784 295.47516784 295.47516784 295.47516784 295.47516784 295.47516784 295.47516784 295.47516784
C          1.06232        0.06727       -0.04796
C          0.54771       -1.36461        0.06037
C         -0.97841       -1.45503        0.04356
C         -1.46053       -2.88801        0.10602
O         -0.73224       -3.87058        0.14533
N         -2.81872       -3.01799        0.10722
N          0.63493        0.87885        1.08421
H          0.70698        0.52955       -0.97526
H          2.15626        0.06143       -0.08314
H          0.93752       -1.83271        0.97344
H          0.95415       -1.94396       -0.77873
H         -1.36960       -1.00286       -0.87532
H         -1.40521       -0.92009        0.89950
H         -3.44895       -2.22922        0.13150
H         -3.20125       -3.95203        0.17626
15 15 15 15 15 15 15 15 15 15 15 15 15 15 15 15 15 15 15 15 15 15 15 15 15 15 15 15 15 15 15 15 15 15 15 15 15 15 15 15
C(CCC(=O)N)[N+]
InChI=1S/C4H10N2O/c5-3-1-2-4(6)7/h1-3,5H2,(H2,6,7)/p+1
