17
metacyc CPD-11622  168.076317536 168.076317536 168.076317536 168.076317536 168.076317536 168.076317536 168.076317536 168.076317536 168.076317536 168.076317536 168.076317536 168.076317536 168.076317536 168.076317536 168.076317536
C          0.66449        1.20948        0.30696
N          1.47294        0.03273       -0.04368
C          0.70585       -1.22440        0.26373
C          1.31185       -2.58979       -0.21315
O          1.39716       -2.80872       -1.46174
O          1.57925       -3.41321        0.72579
C         -0.70137       -1.20973       -0.36946
N         -1.48948       -0.03203        0.10816
C         -0.73962        1.16487       -0.32396
H          1.16407        2.12367       -0.03643
H          0.57109        1.31153        1.39646
H          0.59109       -1.30522        1.35579
H         -1.25285       -2.11366       -0.08211
H         -0.66484       -1.19736       -1.46653
H         -1.35662       -0.06798        1.11896
H         -1.29970        2.05288       -0.01023
H         -0.68053        1.19879       -1.41934
17 17 17 17 17 17 17 17 17 17 17 17 17 17 17 17 17 17 17 17 17 17 17 17 17 17 17 17 17 17 17 17 17 17 17 17 17 17 17 17 17 17 17 17 17 17
C1([N+]C(C([O-])=O)CNC1)
InChI=1S/C5H10N2O2/c8-5(9)4-3-6-1-2-7-4/h4,6-7H,1-3H2,(H,8,9)/t4-/m1/s1
