25
metacyc CPD-7995  603.85944008 603.85944008 603.85944008 603.85944008 603.85944008 603.85944008 603.85944008 603.85944008 603.85944008 603.85944008 603.85944008 603.85944008 603.85944008 603.85944008 603.85944008
C          1.34063        1.25672       -0.63969
C          2.77385        0.80102       -0.69504
C          3.11354       -0.60622       -1.14603
C          2.30492       -1.16212       -2.31952
N          2.25485       -0.40524       -3.59038
C          1.87200       -1.38399       -4.63110
C          2.10112       -2.77775       -4.05869
C          2.80478       -2.54281       -2.73734
C          3.50159        0.26625       -3.95530
O          3.66375        1.52644       -0.23678
H          0.70247        0.71049       -1.33289
H          1.29918        2.31411       -0.91838
H          0.96045        1.12845        0.37671
H          2.98374       -1.26103       -0.27532
H          4.18291       -0.61754       -1.39415
H          1.26565       -1.28184       -1.98451
H          2.42794       -1.25260       -5.56692
H          0.81170       -1.25299       -4.87727
H          2.69727       -3.40887       -4.72554
H          1.13843       -3.27499       -3.88924
H          3.89188       -2.54842       -2.88441
H          2.55796       -3.31698       -2.00368
H          3.73592        1.07050       -3.25125
H          3.39851        0.75314       -4.93302
H          4.35477       -0.41879       -4.00490
25 25 25 25 25 25 25 25 25 25 25 25 25 25 25 25 25 25 25 25 25 25 25 25 25 25 25 25 25 25 25 25 25 25 25 25 25 25 25 25 25 25 25 25 25 25 25 25 25 25 25 25 25 25 25 25 25 25 25 25 25 25 25 25 25 25 25 25 25 25
CC(CC1([N+](CCC1)C))=O
InChI=1S/C8H15NO/c1-7(10)6-8-4-3-5-9(8)2/h8H,3-6H2,1-2H3/p+1
