31
metacyc CPD-9291  346.886804224 346.886804224 346.886804224 346.886804224 346.886804224 346.886804224 346.886804224 346.886804224 346.886804224 346.886804224 346.886804224 346.886804224 346.886804224 346.886804224 346.886804224
C         -0.63820        0.04506        3.01674
C          0.18091       -0.73896        2.02473
N          1.45837       -1.00546        2.44480
C          2.36143       -1.83017        1.65406
C          3.06969       -0.94184        0.62268
O          4.11776       -0.34353        0.82487
O          2.37231       -0.80495       -0.53181
C          3.38640       -2.52586        2.55600
C          2.72201       -3.47039        3.56165
C          3.75433       -4.10716        4.48862
N          3.04422       -4.96104        5.43385
C          3.72549       -5.56716        6.33302
N          5.05901       -5.53858        6.55040
N          3.08116       -6.31221        7.25595
O         -0.25067       -1.14407        0.94946
H          0.00251        0.62888        3.68471
H         -1.23425       -0.64707        3.61853
H         -1.29742        0.73626        2.48603
H          1.85492       -0.45182        3.19510
H          1.79067       -2.59651        1.11447
H          1.46954       -1.19131       -0.47410
H          3.97474       -1.77556        3.09959
H          4.09339       -3.09068        1.93541
H          2.16807       -4.25274        3.02766
H          1.98802       -2.92525        4.16854
H          4.29879       -3.31804        5.02071
H          4.46644       -4.69112        3.89465
H          5.63813       -5.18130        5.80534
H          5.46521       -6.31198        7.05444
H          2.10385       -6.42091        7.00389
H          3.50920       -7.19343        7.49337
31 31 31 31 31 31 31 31 31 31 31 31 31 31 31 31 31 31 31 31 31 31 31 31 31 31 31 31 31 31 31 31 31 31 31 31 31 31 31 31 31 31 31 31 31 31 31 31 31 31 31 31 31 31 31 31 31 31 31 31 31 31 31 31 31 31 31 31 31 31 31 31 31 31 31 31 31 31 31 31 31 31 31 31 31 31 31 31
CC(NC(C(=O)O)CCCN=C(N)N)=O
InChI=1S/C8H16N4O3/c1-5(13)12-6(7(14)15)3-2-4-11-8(9)10/h6H,2-4H2,1H3,(H,12,13)(H,14,15)(H4,9,10,11)/t6-/m0/s1
