13
metacyc CPD-14152  45.880074584 45.880074584 45.880074584 45.880074584 45.880074584 45.880074584 45.880074584 45.880074584 45.880074584 45.880074584 45.880074584 45.880074584 45.880074584 45.880074584 45.880074584
C          1.06368        0.89216       -0.00013
C          1.38813       -0.40584       -0.00070
C          0.31675       -1.43206       -0.00192
N          0.56821       -2.70277       -0.00235
C         -1.13373       -0.93541       -0.00269
C         -1.34759        0.52896       -0.00185
C         -0.29921        1.35927       -0.00064
O         -2.08498       -1.70239       -0.00394
H          1.84647        1.64732        0.00076
H          2.41816       -0.73795       -0.00029
H          1.57348       -2.88858       -0.00174
H         -2.37406        0.87232       -0.00226
H         -0.45951        2.43478       -0.00003
13 13 13 13 13 13 13 13 13 13 13 13 13 13 13 13 13 13 13 13 13 13 13 13 13 13 13 13 13 13 13 13 13 13
C1(=CC(=N)C(C=C1)=O)
InChI=1S/C6H5NO/c7-5-3-1-2-4-6(5)8/h1-4,7H
