13
metacyc CPD-20007  159.094436872 159.094436872 159.094436872 159.094436872 159.094436872 159.094436872 159.094436872 159.094436872 159.094436872 159.094436872 159.094436872 159.094436872 159.094436872 159.094436872 159.094436872
C         -0.72327        1.11920        0.03870
C          0.65014        1.24620       -0.03630
C          1.40482        0.07640       -0.06302
C          0.78122       -1.16733       -0.01493
C         -0.59956       -1.18462        0.05908
N         -1.36263       -0.07057        0.08680
C          2.87554        0.14758       -0.14296
O          3.47042        1.21684       -0.18950
H         -1.36736        1.99390        0.06293
H          1.11723        2.22474       -0.07275
H          1.33926       -2.09593       -0.03391
H         -1.14934       -2.12116        0.09933
H          3.41782       -0.81271       -0.15910
13 13 13 13 13 13 13 13 13 13 13 13 13 13 13 13 13 13 13 13 13 13 13 13 13 13 13 13 13 13 13 13 13 13
C1(=CC(=CC=N1)C=O)
InChI=1S/C6H4NO/c8-5-6-1-3-7-4-2-6/h1-4H
