16
metacyc CPD-16943  35.262910992 35.262910992 35.262910992 35.262910992 35.262910992 35.262910992 35.262910992 35.262910992 35.262910992 35.262910992 35.262910992 35.262910992 35.262910992 35.262910992 35.262910992
C          0.87634       -0.03377       -0.04988
C          2.39604       -0.04001        0.03462
C          2.93180        0.43880        1.38833
C          2.52712       -0.46932        2.54607
C          4.47266        0.49713        1.42135
O          5.08160       -0.32316        0.67885
O          4.94713        1.37046        2.20453
H          0.55619       -0.27347       -1.06897
H          0.46954        0.94786        0.21180
H          0.43708       -0.78129        0.61744
H          2.79116        0.61240       -0.75449
H          2.75569       -1.05155       -0.18995
H          2.55156        1.45070        1.58033
H          2.83387       -1.50565        2.36655
H          1.44306       -0.45724        2.69663
H          2.98713       -0.14634        3.48677
16 16 16 16 16 16 16 16 16 16 16 16 16 16 16 16 16 16 16 16 16 16 16 16 16 16 16 16 16 16 16 16 16 16 16 16 16 16 16 16 16 16 16
CCC(C)C(=O)[O-]
InChI=1S/C5H10O2/c1-3-4(2)5(6)7/h4H,3H2,1-2H3,(H,6,7)/p-1/t4-/m0/s1
