18
metacyc CPD-1421  555.26370264 555.26370264 555.26370264 555.26370264 555.26370264 555.26370264 555.26370264 555.26370264 555.26370264 555.26370264 555.26370264 555.26370264 555.26370264 555.26370264 555.26370264
C          1.04958        0.05575        0.11434
C          2.55090        0.03489        0.02673
C          3.25515        1.24931        0.01111
C          4.64687        1.26701       -0.07653
C          5.35260        0.07100       -0.15115
C          4.66713       -1.14348       -0.13813
C          3.26640       -1.17765       -0.04905
C          2.56153       -2.50625       -0.04422
H          0.66597        1.07801        0.20075
H          0.71073       -0.49606        0.99674
H          0.61124       -0.38754       -0.78529
H          2.72040        2.19503        0.06669
H          5.17845        2.21444       -0.08757
H          6.43682        0.08198       -0.22082
H          5.23636       -2.06851       -0.19927
H          3.27229       -3.33886       -0.07944
H          1.90790       -2.59190       -0.91808
H          1.96884       -2.62070        0.86882
18 18 18 18 18 18 18 18 18 18 18 18 18 18 18 18 18 18 18 18 18 18 18 18 18 18 18 18 18 18 18 18 18 18 18 18 18 18 18 18 18 18 18 18 18 18 18 18 18
CC1(C=CC=CC(C)=1)
InChI=1S/C8H10/c1-7-5-3-4-6-8(7)2/h3-6H,1-2H3
