18
metacyc CPD-13320  492.7030284 492.7030284 492.7030284 492.7030284 492.7030284 492.7030284 492.7030284 492.7030284 492.7030284 492.7030284 492.7030284 492.7030284 492.7030284 492.7030284 492.7030284
C          0.92760       -0.10030       -0.09582
N          2.36496       -0.00821       -0.08060
C          3.21892       -1.07566       -0.03640
N          4.47497       -0.69334       -0.00058
C          4.42708        0.67384       -0.03549
N          5.50208        1.47953       -0.01893
C          5.17274        2.77342       -0.06936
N          3.93947        3.31592       -0.13254
C          2.87454        2.49582       -0.15350
N          1.62328        3.08158       -0.23689
C          3.11913        1.13510       -0.09285
H          0.62707       -1.15137       -0.10025
H          0.55215        0.39314       -0.99509
H          0.54083        0.38284        0.80531
H          2.87840       -2.10354       -0.02996
H          5.99969        3.47677       -0.05780
H          1.68969        4.07478       -0.03600
H          0.86259        2.59943        0.21306
18 18 18 18 18 18 18 18 18 18 18 18 18 18 18 18 18 18 18 18 18 18 18 18 18 18 18 18 18 18 18 18 18 18 18 18 18 18 18 18 18 18 18 18 18 18 18 18 18
CN2(C=NC1(=NC=NC(N)=C12))
InChI=1S/C6H7N5/c1-11-3-10-6-4(11)5(7)8-2-9-6/h2-3H,1H3,(H2,7,8,9)
