26
metacyc CPD-20485  104.479513352 104.479513352 104.479513352 104.479513352 104.479513352 104.479513352 104.479513352 104.479513352 104.479513352 104.479513352 104.479513352 104.479513352 104.479513352 104.479513352 104.479513352
C          0.47206       -1.51277        0.35871
N          1.34065       -2.44160        0.85847
N         -0.72876       -1.84462        0.02833
C         -1.61217       -0.87957       -0.37167
O         -2.54902       -1.09279       -1.13093
N         -1.45850        0.39302        0.13008
C         -0.15937        0.93945        0.57223
C          0.44826        1.89128       -0.48267
C          1.18616        0.63745       -1.07679
N          2.58382        1.02539       -1.47075
C          2.68072        2.35777       -1.82517
O          2.71471        2.74312       -2.98506
N          2.56536        3.18324       -0.73378
C          1.46764        3.00534       -0.07064
N          1.14386        3.73674        1.03061
C          0.99914       -0.05467        0.30957
H          0.86484       -3.30989        1.09753
H          1.96943       -2.13902        1.59312
H         -2.18297        1.00167       -0.23316
H         -0.21464        1.31766        1.59729
H         -0.30241        2.30550       -1.17095
H          0.66263        0.15888       -1.91178
H          3.25502        0.87121       -0.72558
H          1.70798        4.57884        1.12273
H          0.16034        3.90878        1.21054
H          1.84632        0.11224        0.99024
26 26 26 26 26 26 26 26 26 26 26 26 26 26 26 26 26 26 26 26 26 26 26 26 26 26 26 26 26 26 26 26 26 26 26 26 26 26 26 26 26 26 26 26 26 26 26 26 26 26 26 26 26 26 26 26 26 26 26 26 26 26 26 26 26 26 26 26 26 26 26 26 26
C3(N)(=NC(=O)NC2(C1(C(NC(=O)N=C(N)1)C23)))
InChI=1S/C8H10N6O2/c9-5-1-3(11-7(15)13-5)2-4(1)12-8(16)14-6(2)10/h1-4H,(H3,9,11,13,15)(H3,10,12,14,16)
