11
metacyc CPD-17681  64.085160664 64.085160664 64.085160664 64.085160664 64.085160664 64.085160664 64.085160664 64.085160664 64.085160664 64.085160664 64.085160664 64.085160664 64.085160664 64.085160664 64.085160664
C          1.07365        0.02947       -0.05464
N          2.52337        0.05489        0.00218
C          3.19658        0.75424        0.99126
O          2.68698        1.35753        1.92783
N          3.26815       -0.57047       -1.02221
H          0.63328        0.52604        0.81495
H          0.73670       -1.01162       -0.08165
H          0.74665        0.54559       -0.96230
H          4.29259        0.70771        0.86696
H          2.64109       -0.81688       -1.79257
H          3.62280       -1.45857       -0.65967
11 11 11 11 11 11 11 11 11 11 11 11 11 11 11 11 11 11 11 11 11 11 11 11 11 11 11 11
CN(C=O)N
InChI=1S/C2H6N2O/c1-4(3)2-5/h2H,3H2,1H3
