20
metacyc CPD-15315  199.158793296 199.158793296 199.158793296 199.158793296 199.158793296 199.158793296 199.158793296 199.158793296 199.158793296 199.158793296 199.158793296 199.158793296 199.158793296 199.158793296 199.158793296
C          4.58617        0.92392       -0.76766
O          3.87156        1.40593        0.37287
C          3.09924        0.48964        1.01231
C          2.37115        1.12225        2.15743
C          1.53313        0.33999        2.98343
C          0.86692        0.96562        4.04940
C          0.96935        2.34177        4.26084
C          1.77180        3.11360        3.42908
C          2.47199        2.50848        2.38483
N          1.50771       -1.06677        2.93325
O          2.98358       -0.68387        0.68977
H          4.73815        1.76661       -1.44835
H          4.03955        0.14642       -1.31017
H          5.56331        0.55250       -0.44775
H          0.26596        0.37350        4.73589
H          0.43600        2.80443        5.08751
H          1.86381        4.18354        3.59839
H          3.09968        3.13465        1.75523
H          1.83181       -1.43610        2.03277
H          0.63563       -1.48631        3.23614
20 20 20 20 20 20 20 20 20 20 20 20 20 20 20 20 20 20 20 20 20 20 20 20 20 20 20 20 20 20 20 20 20 20 20 20 20 20 20 20 20 20 20 20 20 20 20 20 20 20 20 20 20 20 20
COC(C1(C(=CC=CC=1)N))=O
InChI=1S/C8H9NO2/c1-11-8(10)6-4-2-3-5-7(6)9/h2-5H,9H2,1H3
