14
metacyc CPD-15782  4.9746094768 4.9746094768 4.9746094768 4.9746094768 4.9746094768 4.9746094768 4.9746094768 4.9746094768 4.9746094768 4.9746094768 4.9746094768 4.9746094768 4.9746094768 4.9746094768 4.9746094768
C          0.99456        0.05114        0.09233
C          2.50756       -0.07986        0.07804
C          2.94822       -1.51542       -0.07849
O          2.20404       -2.47979       -0.18364
O          4.31078       -1.57333       -0.08480
C          4.83221       -2.89507       -0.22892
H          0.70302        1.09960        0.20665
H          0.55872       -0.51800        0.92023
H          0.55872       -0.32620       -0.83878
H          2.91435        0.30779        1.01797
H          2.91436        0.50125       -0.75625
H          5.92379       -2.83162       -0.22200
H          4.51658       -3.32979       -1.18258
H          4.51658       -3.52510        0.60864
14 14 14 14 14 14 14 14 14 14 14 14 14 14 14 14 14 14 14 14 14 14 14 14 14 14 14 14 14 14 14 14 14 14 14 14 14
CCC(=O)OC
InChI=1S/C4H8O2/c1-3-4(5)6-2/h3H2,1-2H3
