19
metacyc CPD-10829  572.71098264 572.71098264 572.71098264 572.71098264 572.71098264 572.71098264 572.71098264 572.71098264 572.71098264 572.71098264 572.71098264 572.71098264 572.71098264 572.71098264 572.71098264
C         -0.71016       -1.20032        0.04011
C         -1.40628        0.00140        0.05035
C         -0.67713        1.17652        0.00766
N          0.67252        1.22208       -0.04702
C          1.34066        0.04305       -0.05854
C          0.68153       -1.18365       -0.01578
C          2.84381        0.10224       -0.18416
C          3.48962        0.89082        0.95741
N          4.94908        0.92489        0.81794
H         -1.24641       -2.14456        0.06736
H         -2.48975        0.02302        0.08549
H         -1.17189        2.14306        0.01002
H          1.23415       -2.11672       -0.03916
H          3.08792        0.56418       -1.14971
H          3.25739       -0.91373       -0.20726
H          3.23484        0.43910        1.92294
H          3.11688        1.92107        0.97221
H          5.32694       -0.01768        0.89999
H          5.34359        1.46184        1.58926
19 19 19 19 19 19 19 19 19 19 19 19 19 19 19 19 19 19 19 19 19 19 19 19 19 19 19 19 19 19 19 19 19 19 19 19 19 19 19 19 19 19 19 19 19 19 19 19 19 19 19 19
C1(=CC=NC(=C1)CCN)
InChI=1S/C7H10N2/c8-5-4-7-3-1-2-6-9-7/h1-3,6H,4-5,8H2
