28
metacyc CPD-8491  678.5201168 678.5201168 678.5201168 678.5201168 678.5201168 678.5201168 678.5201168 678.5201168 678.5201168 678.5201168 678.5201168 678.5201168 678.5201168 678.5201168 678.5201168
C          1.02154       -0.02666       -0.01266
C          2.54172       -0.03993        0.00032
C          3.08189       -1.04612        1.01544
C          4.61113       -1.05960        1.02779
C          5.14515       -2.06692        2.04654
C          6.67414       -2.08684        2.06618
C          7.19692       -3.09522        3.08940
C          8.72089       -3.12373        3.11850
C          9.26046       -4.11336        4.12299
H         10.36151       -4.16619        4.17773
O          8.56944       -4.82522        4.84399
H          0.65487        0.69944       -0.74482
H          0.62347        0.24963        0.96898
H          0.62314       -1.01048       -0.28053
H          2.90853        0.96482        0.24019
H          2.90821       -0.28883       -1.00237
H          2.70777       -2.04856        0.77393
H          2.70874       -0.79488        2.01585
H          4.98623       -0.05767        1.26945
H          4.98518       -1.31324        0.02843
H          4.76846       -3.06824        1.80444
H          4.76885       -1.81310        3.04508
H          7.05253       -1.08624        2.30828
H          7.05206       -2.34369        1.06912
H          6.81418       -4.09537        2.85054
H          6.81409       -2.84182        4.08590
H          9.11788       -2.13727        3.38177
H          9.11824       -3.40113        2.13604
28 28 28 28 28 28 28 28 28 28 28 28 28 28 28 28 28 28 28 28 28 28 28 28 28 28 28 28 28 28 28 28 28 28 28 28 28 28 28 28 28 28 28 28 28 28 28 28 28 28 28 28 28 28 28 28 28 28 28 28 28 28 28 28 28 28 28 28 28 28 28 28 28 28 28 28 28 28 28
CCCCCCCC[CH]=O
InChI=1S/C9H18O/c1-2-3-4-5-6-7-8-9-10/h9H,2-8H2,1H3
