11
metacyc CPD-18984  335.42697048 335.42697048 335.42697048 335.42697048 335.42697048 335.42697048 335.42697048 335.42697048 335.42697048 335.42697048 335.42697048 335.42697048 335.42697048 335.42697048 335.42697048
C          0.94595       -0.06361       -0.05229
C          2.46501       -0.05217       -0.07908
C          2.99858        0.50676       -1.38724
H          0.58642       -0.46977        0.89832
H          0.54395       -0.68320       -0.86032
H          0.54396        0.94858       -0.16311
H          2.83999       -1.07195        0.06180
H          2.84000        0.55096        0.75520
H          2.66144       -0.09480       -2.23746
H          4.09305        0.50461       -1.38226
H          2.66147        1.53698       -1.54024
11 11 11 11 11 11 11 11 11 11 11 11 11 11 11 11 11 11 11 11 11 11 11 11 11 11 11 11
CCC
InChI=1S/C3H8/c1-3-2/h3H2,1-2H3
