16
metacyc CPD-9014  172.42372784 172.42372784 172.42372784 172.42372784 172.42372784 172.42372784 172.42372784 172.42372784 172.42372784 172.42372784 172.42372784 172.42372784 172.42372784 172.42372784 172.42372784
C          1.07786       -0.88326        0.38390
O          2.49912       -0.74839        0.38040
C          2.97847        0.07183        1.35581
O          2.29144        0.70779        2.14536
C          4.50479        0.07667        1.33314
N          5.08294        0.33947        2.66446
C          4.79990       -0.74051        3.60077
N          5.42147       -0.42060        4.87386
H          0.80473       -1.61475       -0.38305
H          0.60313        0.07135        0.14085
H          0.72972       -1.25553        1.35218
H          4.82191        0.86700        0.64477
H          4.87944       -0.87806        0.94803
H          4.65926        1.18753        3.04544
H          5.20695       -1.68896        3.23592
H          3.72518       -0.86957        3.76489
16 16 16 16 16 16 16 16 16 16 16 16 16 16 16 16 16 16 16 16 16 16 16 16 16 16 16 16 16 16 16 16 16 16 16 16 16 16 16 16 16 16 16
COC(=O)CNC[N+]
InChI=1S/C4H10N2O2/c1-8-4(7)2-6-3-5/h6H,2-3,5H2,1H3/p+1
