18
metacyc CPD-16508  1.21373752232 1.21373752232 1.21373752232 1.21373752232 1.21373752232 1.21373752232 1.21373752232 1.21373752232 1.21373752232 1.21373752232 1.21373752232 1.21373752232 1.21373752232 1.21373752232 1.21373752232
C          0.94667        0.21191       -0.04982
O          0.22372       -0.65507        0.52598
O          0.57305        1.28683       -0.62120
C          2.47981       -0.03214       -0.09124
N          2.92757       -0.61526        1.18232
C          2.84636       -0.86710       -1.30456
C          3.18609       -0.21935       -2.50454
C          3.46212       -0.95100       -3.66093
C          3.39788       -2.34024       -3.62195
O          3.62331       -3.08540       -4.74272
C          3.07626       -3.00530       -2.44542
C          2.79005       -2.27050       -1.29272
H          2.98045        0.94308       -0.16604
H          3.19965        0.86792       -2.54189
H          3.70793       -0.42017       -4.57322
H          3.58975       -2.47983       -5.50057
H          3.01354       -4.08844       -2.42798
H          2.48856       -2.79321       -0.38657
18 18 18 18 18 18 18 18 18 18 18 18 18 18 18 18 18 18 18 18 18 18 18 18 18 18 18 18 18 18 18 18 18 18 18 18 18 18 18 18 18 18 18 18 18 18 18 18 18
C([O-])(=O)C([N+])C1(=CC=C(O)C=C1)
InChI=1S/C8H9NO3/c9-7(8(11)12)5-1-3-6(10)4-2-5/h1-4,7,10H,9H2,(H,11,12)/t7-/m0/s1
