10
metacyc CPD-9375  195.12883144 195.12883144 195.12883144 195.12883144 195.12883144 195.12883144 195.12883144 195.12883144 195.12883144 195.12883144 195.12883144 195.12883144 195.12883144 195.12883144 195.12883144
C          0.98807        0.06092        0.08664
C          2.50634        0.08083        0.04231
C          3.03891        0.11707       -1.37430
O          2.43716       -0.32102       -2.35264
N          3.00357        1.27485        0.72011
H          0.59680       -0.83237       -0.41247
H          0.55943        0.93241       -0.42220
H          0.62256        0.05536        1.11964
H          2.92046       -0.80548        0.53181
H          4.07578        0.48051       -1.48662
10 10 10 10 10 10 10 10 10 10 10 10 10 10 10 10 10 10 10 10 10 10 10 10 10
CC(C=O)[N+]
InChI=1S/C3H7NO/c1-3(4)2-5/h2-3H,4H2,1H3/p+1/t3-/m0/s1
