22
metacyc CPD-220  334.23775216 334.23775216 334.23775216 334.23775216 334.23775216 334.23775216 334.23775216 334.23775216 334.23775216 334.23775216 334.23775216 334.23775216 334.23775216 334.23775216 334.23775216
C          0.87194       -0.02242        0.00509
N          0.33170        1.02128        0.88325
C          0.10245        0.89810        2.16772
N          0.33771       -0.16959        2.88747
N         -0.40426        1.88548        2.75573
C          2.38401        0.05465        0.01914
C          2.99355       -1.08569       -0.81059
C          4.52522       -1.13386       -0.75697
N          5.06531        0.11547       -1.30468
C          5.06804       -1.34921        0.68483
O          4.20247       -1.79296        1.51230
O          6.27960       -1.07811        0.89104
H          0.48391        0.15241       -1.00336
H          0.50822       -1.00058        0.33686
H          0.13278        1.93743        0.49734
H          0.83225       -0.97335        2.51794
H          0.12008       -0.15467        3.87445
H          2.72341        0.01778        1.05843
H          2.70435        1.02916       -0.36644
H          2.66542       -0.98443       -1.85338
H          2.59252       -2.04579       -0.45940
H          4.88136       -1.96888       -1.37274
22 22 22 22 22 22 22 22 22 22 22 22 22 22 22 22 22 22 22 22 22 22 22 22 22 22 22 22 22 22 22 22 22 22 22 22 22 22 22 22 22 22 22 22 22 22 22 22 22 22 22 22 22 22 22 22 22 22 22 22 22
C(NC(N)=[N+])CCC([N+])C([O-])=O
InChI=1S/C6H14N4O2/c7-4(5(11)12)2-1-3-10-6(8)9/h4H,1-3,7H2,(H,11,12)(H4,8,9,10)/p+1/t4-/m1/s1
