16
metacyc CPD-19875  21.748565888 21.748565888 21.748565888 21.748565888 21.748565888 21.748565888 21.748565888 21.748565888 21.748565888 21.748565888 21.748565888 21.748565888 21.748565888 21.748565888 21.748565888
C          1.04925       -0.05614       -0.04265
C          2.58047       -0.07476       -0.03077
C          3.10391       -0.16422       -1.46815
C          3.10413        1.19665        0.64538
C          3.16044       -1.28784        0.75060
O          2.31269       -2.07484        1.25942
O          4.42360       -1.35659        0.79307
H          0.66782        0.80740       -0.59909
H          0.64274       -0.00121        0.97373
H          0.64264       -0.95901       -0.51258
H          2.72948        0.66722       -2.07598
H          2.78629       -1.09836       -1.94563
H          4.19857       -0.13187       -1.50956
H          2.73000        2.09411        0.13986
H          4.19883        1.24746        0.63323
H          2.78634        1.24501        1.69334
16 16 16 16 16 16 16 16 16 16 16 16 16 16 16 16 16 16 16 16 16 16 16 16 16 16 16 16 16 16 16 16 16 16 16 16 16 16 16 16 16 16 16
CC(C)(C)C(=O)[O-]
InChI=1S/C5H10O2/c1-5(2,3)4(6)7/h1-3H3,(H,6,7)/p-1
