18
metacyc CPD-20799  198.498658512 198.498658512 198.498658512 198.498658512 198.498658512 198.498658512 198.498658512 198.498658512 198.498658512 198.498658512 198.498658512 198.498658512 198.498658512 198.498658512 198.498658512
C          0.69722       -1.21913        0.27745
C         -0.73210       -1.24223       -0.26836
C         -1.50564        0.01701        0.12912
C         -0.73143        1.28551       -0.26828
C         -1.60989        2.50613        0.13307
O         -2.74514        2.57144       -0.44324
O         -1.13422        3.33365        0.96541
C          0.71131        1.20032        0.27699
N          1.40971       -0.02597       -0.17990
H          1.21300       -2.12494       -0.06376
H          0.67234       -1.28095        1.37301
H         -1.25662       -2.12936        0.10451
H         -0.70970       -1.31990       -1.36319
H         -1.67787        0.01193        1.21356
H         -2.49381       -0.00754       -0.34517
H         -0.66897        1.31609       -1.36633
H          0.69598        1.26302        1.37353
H          1.26102        2.08892       -0.05823
18 18 18 18 18 18 18 18 18 18 18 18 18 18 18 18 18 18 18 18 18 18 18 18 18 18 18 18 18 18 18 18 18 18 18 18 18 18 18 18 18 18 18 18 18 18 18 18 18
C1(CCC(C([O-])=O)C[N+]1)
InChI=1S/C6H11NO2/c8-6(9)5-2-1-3-7-4-5/h5,7H,1-4H2,(H,8,9)/t5-/m1/s1
