23
metacyc CPD-13321  573.23176512 573.23176512 573.23176512 573.23176512 573.23176512 573.23176512 573.23176512 573.23176512 573.23176512 573.23176512 573.23176512 573.23176512 573.23176512 573.23176512 573.23176512
C          0.89351        0.02931        0.01410
C          2.41360        0.04678        0.03200
C          2.95144        1.10219        0.99887
C          4.48125        1.11350        1.01038
C          5.01411        2.15280        1.95351
H          4.74366        2.04246        3.00375
C          5.79669        3.17410        1.57308
H          6.09045        3.31130        0.53972
C          6.29660        4.16685        2.56760
O          6.00808        4.08601        3.75969
C          7.17324        5.27639        2.04979
H          0.53159       -0.73149       -0.68459
H          0.49378        0.99820       -0.30178
H          0.49209       -0.20170        1.00594
H          2.78225        0.24746       -0.98072
H          2.78141       -0.94472        0.32074
H          2.57349        0.89952        2.00911
H          2.57467        2.09118        0.70849
H          4.85558        1.28647       -0.00612
H          4.85733        0.13287        1.32566
H          7.33071        5.19425        0.97121
H          8.14615        5.22554        2.54560
H          6.69520        6.23722        2.25727
23 23 23 23 23 23 23 23 23 23 23 23 23 23 23 23 23 23 23 23 23 23 23 23 23 23 23 23 23 23 23 23 23 23 23 23 23 23 23 23 23 23 23 23 23 23 23 23 23 23 23 23 23 23 23 23 23 23 23 23 23 23 23 23
CCCC[CH]=[CH]C(=O)C
InChI=1S/C8H14O/c1-3-4-5-6-7-8(2)9/h6-7H,3-5H2,1-2H3/b7-6+
