19
metacyc CPD-17575  59.831601664 59.831601664 59.831601664 59.831601664 59.831601664 59.831601664 59.831601664 59.831601664 59.831601664 59.831601664 59.831601664 59.831601664 59.831601664 59.831601664 59.831601664
C          0.72863        1.24248       -0.22167
C         -0.72098        1.23213        0.25869
C         -1.47162       -0.00645       -0.21249
C         -0.71196       -1.27949        0.11436
C          0.74980       -1.26965       -0.26058
C          1.45977       -0.01596        0.24032
N          1.41451       -2.48014        0.31607
O          1.52115       -2.55641        1.54854
O          1.88893       -3.28798       -0.49409
O         -1.32077       -2.27627        0.49807
H          1.23945        2.12902        0.17050
H          0.75871        1.30943       -1.31580
H         -1.23420        2.13067       -0.10227
H         -0.73652        1.27225        1.35478
H         -1.61906        0.02238       -1.29794
H         -2.45712       -0.04429        0.26372
H          0.81956       -1.34752       -1.35142
H          2.49440        0.00349       -0.12242
H          1.51145       -0.00179        1.33745
19 19 19 19 19 19 19 19 19 19 19 19 19 19 19 19 19 19 19 19 19 19 19 19 19 19 19 19 19 19 19 19 19 19 19 19 19 19 19 19 19 19 19 19 19 19 19 19 19 19 19 19
C1(CCC(C(C1)[N+](=O)[O-])=O)
InChI=1S/C6H9NO3/c8-6-4-2-1-3-5(6)7(9)10/h5H,1-4H2
