18
metacyc CPD-21001  376.1001784 376.1001784 376.1001784 376.1001784 376.1001784 376.1001784 376.1001784 376.1001784 376.1001784 376.1001784 376.1001784 376.1001784 376.1001784 376.1001784 376.1001784
C         -0.54581        0.02219       -0.91266
C         -0.34419        1.05587       -0.02290
N          0.38164        0.49654        0.99888
C          0.58126       -0.81889        0.69204
N          0.02942       -1.13515       -0.45617
C         -0.75940        2.48711       -0.03807
C         -2.28634        2.67242       -0.00787
N         -2.95805        2.12886        1.18223
O         -2.39182        2.82963        2.32268
H         -1.08000        0.04815       -1.85406
H          0.70732        0.96773        1.83256
H          1.13026       -1.49055        1.33772
H         -0.36822        2.95425       -0.95018
H         -0.29961        3.02438        0.80086
H         -2.72905        2.18964       -0.88753
H         -2.52310        3.73976       -0.09115
H         -2.64591        1.16248        1.32706
H         -3.19261        3.21467        2.73131
18 18 18 18 18 18 18 18 18 18 18 18 18 18 18 18 18 18 18 18 18 18 18 18 18 18 18 18 18 18 18 18 18 18 18 18 18 18 18 18 18 18 18 18 18 18 18 18 18
C1(=C(NC=N1)CCNO)
InChI=1S/C5H9N3O/c9-8-2-1-5-3-6-4-7-5/h3-4,8-9H,1-2H2,(H,6,7)
