22
metacyc CPD-10086  506.45514604 506.45514604 506.45514604 506.45514604 506.45514604 506.45514604 506.45514604 506.45514604 506.45514604 506.45514604 506.45514604 506.45514604 506.45514604 506.45514604 506.45514604
C          0.94076        0.13533        0.09027
C          2.46097        0.06854       -0.08022
C          2.92619       -1.34272       -0.46329
C          2.56792       -1.71527       -1.90241
O          3.11758       -2.99191       -2.21463
C          3.08862       -0.67861       -2.89635
C          2.62207        0.73041       -2.54652
C          2.96363        1.09921       -1.10264
H          0.60649       -0.58437        0.84499
H          0.40533       -0.08253       -0.83843
H          0.63555        1.13278        0.42440
H          2.90236        0.31695        0.89384
H          2.51245       -2.08809        0.22740
H          4.01579       -1.40694       -0.33662
H          1.48113       -1.80643       -2.00422
H          4.08440       -2.93065       -2.13092
H          2.76287       -0.94194       -3.90992
H          4.18563       -0.70865       -2.92205
H          1.54057        0.80955       -2.70574
H          3.09174        1.44987       -3.22711
H          2.55949        2.09174       -0.87147
H          4.05489        1.17946       -1.01204
22 22 22 22 22 22 22 22 22 22 22 22 22 22 22 22 22 22 22 22 22 22 22 22 22 22 22 22 22 22 22 22 22 22 22 22 22 22 22 22 22 22 22 22 22 22 22 22 22 22 22 22 22 22 22 22 22 22 22 22 22
CC1(CC(O)CCC1)
InChI=1S/C7H14O/c1-6-3-2-4-7(8)5-6/h6-8H,2-5H2,1H3
