20
metacyc CPD-12383  268.44583748 268.44583748 268.44583748 268.44583748 268.44583748 268.44583748 268.44583748 268.44583748 268.44583748 268.44583748 268.44583748 268.44583748 268.44583748 268.44583748 268.44583748
C          0.99128       -0.25941        0.06199
N          0.40346       -0.86063        1.06287
O          1.04024       -1.27500        2.22676
O         -0.84058       -1.09205        0.98621
C          2.45136        0.04135        0.08835
C          2.87805        0.73446       -1.17848
C          2.85324        2.13316       -1.26571
C          3.16441        2.77122       -2.46723
C          3.50000        2.01895       -3.59118
C          3.53396        0.62810       -3.51327
C          3.22410       -0.01275       -2.31302
H          0.36859        0.01666       -0.80191
H          1.95952       -1.01830        2.10140
H          3.01587       -0.89077        0.20700
H          2.67961        0.67466        0.95368
H          2.57629        2.73659       -0.40407
H          3.13256        3.85597       -2.53033
H          3.72793        2.51652       -4.53021
H          3.78959        0.04154       -4.39206
H          3.23860       -1.09990       -2.27593
20 20 20 20 20 20 20 20 20 20 20 20 20 20 20 20 20 20 20 20 20 20 20 20 20 20 20 20 20 20 20 20 20 20 20 20 20 20 20 20 20 20 20 20 20 20 20 20 20 20 20 20 20 20 20
C(=[N+](O)[O-])CC1(C=CC=CC=1)
InChI=1S/C8H9NO2/c10-9(11)7-6-8-4-2-1-3-5-8/h1-5,7H,6H2,(H,10,11)
