18
metacyc CPD-7366  355.51485656 355.51485656 355.51485656 355.51485656 355.51485656 355.51485656 355.51485656 355.51485656 355.51485656 355.51485656 355.51485656 355.51485656 355.51485656 355.51485656 355.51485656
C          1.01229        0.10739        0.06368
C          2.50375        0.12703       -0.09525
C          3.20602        1.34226       -0.14181
C          4.58638        1.35959       -0.35028
C          5.26789        0.13636       -0.39411
C          4.59495       -1.07690       -0.34902
C          3.20795       -1.08026       -0.20809
O          6.63559        0.12065       -0.44144
N          5.30671        2.57224       -0.35205
H          0.60466        1.11722        0.17386
H          0.73286       -0.46587        0.95382
H          0.54780       -0.34801       -0.81749
H          2.66459        2.27862       -0.03723
H          5.14745       -2.00994       -0.39793
H          2.67976       -2.03015       -0.16582
H          6.89675        0.98919       -0.08242
H          4.69782        3.37716       -0.48125
H          6.02897        2.56717       -1.07000
18 18 18 18 18 18 18 18 18 18 18 18 18 18 18 18 18 18 18 18 18 18 18 18 18 18 18 18 18 18 18 18 18 18 18 18 18 18 18 18 18 18 18 18 18 18 18 18 18
CC1(=CC(=C(C=C1)O)N)
InChI=1S/C7H9NO/c1-5-2-3-7(9)6(8)4-5/h2-4,9H,8H2,1H3
