24
metacyc CPD-14149  22.762039472 22.762039472 22.762039472 22.762039472 22.762039472 22.762039472 22.762039472 22.762039472 22.762039472 22.762039472 22.762039472 22.762039472 22.762039472 22.762039472 22.762039472
C          1.08014       -1.10513        1.04516
C          2.59897       -1.08393        1.02694
C          3.15055        0.24745        1.52795
C          4.66377        0.24742        1.46039
O          5.25134        0.06805        0.39538
C          5.40496        0.47462        2.73421
C          6.74561        0.47161        2.72855
C          7.54249        0.67864        3.92063
C          8.88820        0.69344        4.00638
O          9.73279        0.50544        2.91531
C          9.57082        0.93661        5.42128
O          8.76727        1.10314        6.38958
O         10.83579        0.93712        5.42692
H          0.71101       -2.07264        0.69014
H          0.66968       -0.32620        0.39475
H          0.69710       -0.94614        2.05806
H          2.94790       -1.27778        0.00533
H          2.98291       -1.90123        1.64912
H          2.81163        0.43743        2.55167
H          2.79332        1.07792        0.90811
H          4.83386        0.63341        3.64033
H          7.26155        0.30454        1.78957
H          6.98686        0.83819        4.84661
H          9.20220        0.37149        2.12232
24 24 24 24 24 24 24 24 24 24 24 24 24 24 24 24 24 24 24 24 24 24 24 24 24 24 24 24 24 24 24 24 24 24 24 24 24 24 24 24 24 24 24 24 24 24 24 24 24 24 24 24 24 24 24 24 24 24 24 24 24 24 24 24 24 24 24
CCCC(=O)C=CC=C(O)C(=O)[O-]
InChI=1S/C9H12O4/c1-2-4-7(10)5-3-6-8(11)9(12)13/h3,5-6,11H,2,4H2,1H3,(H,12,13)/p-1/b5-3-,8-6-
