26
metacyc CPD-10093  375.88194096 375.88194096 375.88194096 375.88194096 375.88194096 375.88194096 375.88194096 375.88194096 375.88194096 375.88194096 375.88194096 375.88194096 375.88194096 375.88194096 375.88194096
C          0.97539        0.03836        0.09590
C          2.49408        0.03483        0.10874
C          3.04805       -0.85378        1.22169
C          4.57394       -0.83107        1.21308
C          5.16330       -1.70377        2.31644
C          6.66573       -1.78210        2.19411
O          7.33997       -1.21248        1.34689
O          7.14560       -2.65366        3.12520
C          8.47730       -3.12447        2.87740
C          8.38444       -4.33312        1.96343
H          0.60730        0.68686       -0.70522
H          0.57684        0.40965        1.04516
H          0.58249       -0.96901       -0.07356
H          2.85550        1.06137        0.24023
H          2.86122       -0.31501       -0.86358
H          2.69225       -1.88263        1.08374
H          2.67679       -0.50994        2.19420
H          4.93235        0.19859        1.33397
H          4.93502       -1.17706        0.23586
H          4.77151       -2.72375        2.22276
H          4.90053       -1.30841        3.30319
H          8.91336       -3.41202        3.83963
H          9.11811       -2.34454        2.45001
H          7.77077       -5.11115        2.43002
H          9.37226       -4.74351        1.74380
H          7.89045       -4.07226        1.02063
26 26 26 26 26 26 26 26 26 26 26 26 26 26 26 26 26 26 26 26 26 26 26 26 26 26 26 26 26 26 26 26 26 26 26 26 26 26 26 26 26 26 26 26 26 26 26 26 26 26 26 26 26 26 26 26 26 26 26 26 26 26 26 26 26 26 26 26 26 26 26 26 26
CCCCCC(=O)OCC
InChI=1S/C8H16O2/c1-3-5-6-7-8(9)10-4-2/h3-7H2,1-2H3
