13
metacyc CPD-470  106.23286876 106.23286876 106.23286876 106.23286876 106.23286876 106.23286876 106.23286876 106.23286876 106.23286876 106.23286876 106.23286876 106.23286876 106.23286876 106.23286876 106.23286876
C          1.13487       -0.04620        0.02259
C          0.54622        0.70968       -1.16724
C         -0.98181        0.64937       -1.16987
C         -1.64864        1.30791        0.06073
O         -1.01327        2.25725        0.60308
O         -2.73023        0.76317        0.43408
N         -1.48821        1.35166       -2.35700
N          2.59318       -0.07171       -0.07403
H          0.77152       -1.07920        0.03323
H          0.85429        0.41475        0.97352
H          0.92301        0.26649       -2.09947
H          0.89597        1.75065       -1.15164
H         -1.30342       -0.39716       -1.22851
13 13 13 13 13 13 13 13 13 13 13 13 13 13 13 13 13 13 13 13 13 13 13 13 13 13 13 13 13 13 13 13 13 13
C(CC(C([O-])=O)[N+])[N+]
InChI=1S/C4H10N2O2/c5-2-1-3(6)4(7)8/h3H,1-2,5-6H2,(H,7,8)/p+1/t3-/m0/s1
