18
metacyc CPD-19059  332.8097948 332.8097948 332.8097948 332.8097948 332.8097948 332.8097948 332.8097948 332.8097948 332.8097948 332.8097948 332.8097948 332.8097948 332.8097948 332.8097948 332.8097948
C          0.89521       -0.22202       -0.02988
C          2.40805       -0.06231       -0.06342
C          2.92697        1.21541       -0.75084
C          2.51713        1.29649       -2.22268
C          2.49699        2.48267       -0.01061
O          4.35929        1.17852       -0.69931
H          0.63140       -1.15139        0.48582
H          0.47447       -0.27524       -1.03800
H          0.41430        0.60051        0.50649
H          2.84306       -0.94097       -0.55818
H          2.79176       -0.09758        0.96491
H          1.43641        1.41784       -2.34359
H          2.82900        0.39637       -2.76435
H          3.01210        2.14074       -2.71664
H          1.41439        2.63601       -0.04735
H          2.98065        3.36668       -0.44263
H          2.80883        2.44472        1.03940
H          4.65648        0.39326       -1.18973
18 18 18 18 18 18 18 18 18 18 18 18 18 18 18 18 18 18 18 18 18 18 18 18 18 18 18 18 18 18 18 18 18 18 18 18 18 18 18 18 18 18 18 18 18 18 18 18 18
CCC(C)(C)O
InChI=1S/C5H12O/c1-4-5(2,3)6/h6H,4H2,1-3H3
