20
metacyc CPD-9501  277.6134208 277.6134208 277.6134208 277.6134208 277.6134208 277.6134208 277.6134208 277.6134208 277.6134208 277.6134208 277.6134208 277.6134208 277.6134208 277.6134208 277.6134208
C          0.97641       -0.00564       -0.09979
C          2.47701        0.01494       -0.09828
C          3.17977        1.22561       -0.09858
C          4.57124        1.21279       -0.09688
C          5.27398        0.01347       -0.09496
C          4.58728       -1.20158       -0.09477
C          3.18965       -1.19669       -0.09659
O          5.38675       -2.31202       -0.09261
C          4.73464       -3.57518       -0.09292
O          5.29058        2.37217       -0.09707
H          0.55994        1.00693       -0.09918
H          0.60611       -0.52161        0.79195
H          0.60786       -0.52001       -0.99314
H          2.63695        2.16596       -0.10000
H          6.36023        0.02389       -0.09353
H          2.62546       -2.12414       -0.09662
H          5.50682       -4.35048       -0.08952
H          4.13315       -3.70866       -0.99820
H          4.12756       -3.70655        0.80893
H          4.67272        3.12095       -0.09887
20 20 20 20 20 20 20 20 20 20 20 20 20 20 20 20 20 20 20 20 20 20 20 20 20 20 20 20 20 20 20 20 20 20 20 20 20 20 20 20 20 20 20 20 20 20 20 20 20 20 20 20 20 20 20
CC1(C=C(C=C(C=1)OC)O)
InChI=1S/C8H10O2/c1-6-3-7(9)5-8(4-6)10-2/h3-5,9H,1-2H3
