20
metacyc CPD-14226  132.527120528 132.527120528 132.527120528 132.527120528 132.527120528 132.527120528 132.527120528 132.527120528 132.527120528 132.527120528 132.527120528 132.527120528 132.527120528 132.527120528 132.527120528
C          1.12265       -0.05281       -0.00627
C          0.51824       -1.41011        0.39257
C         -1.01651       -1.43437        0.37109
N         -1.54270       -0.44478        1.32179
C         -1.65717       -1.19977       -1.02771
O         -0.88872       -1.41468       -2.01507
O         -2.87890       -0.87454       -1.04997
C          2.65765       -0.06912       -0.02638
O          3.12868       -1.03820       -0.96906
C          3.19211        1.32357       -0.39449
N          4.64767        1.38895       -0.27838
H          0.78214        0.72347        0.68860
H          0.76234        0.22841       -1.00259
H          0.87028       -1.67126        1.39960
H          0.89577       -2.19445       -0.27483
H         -1.35042       -2.42631        0.70020
H          3.03205       -0.36208        0.96244
H          2.51817       -1.02944       -1.72944
H          2.76218        2.08311        0.26634
H          2.91965        1.57410       -1.42545
20 20 20 20 20 20 20 20 20 20 20 20 20 20 20 20 20 20 20 20 20 20 20 20 20 20 20 20 20 20 20 20 20 20 20 20 20 20 20 20 20 20 20 20 20 20 20 20 20 20 20 20 20 20 20
C(CC([N+])C(=O)[O-])C(O)C[N+]
InChI=1S/C6H14N2O3/c7-3-4(9)1-2-5(8)6(10)11/h4-5,9H,1-3,7-8H2,(H,10,11)/p+1/t4-,5+/m1/s1
