12
metacyc CPD-581  83.252570928 83.252570928 83.252570928 83.252570928 83.252570928 83.252570928 83.252570928 83.252570928 83.252570928 83.252570928 83.252570928 83.252570928 83.252570928 83.252570928 83.252570928
C          1.00123        0.02036       -0.06530
N          2.44842        0.01804       -0.08851
C          3.15801       -0.08207       -1.34779
C          3.16851        0.11212        1.08462
O          4.38918        0.11951        1.17280
H          0.58597       -0.06051       -1.07266
H          0.65817        0.94876        0.40110
H          0.65769       -0.82149        0.54334
H          2.46466       -0.14964       -2.18967
H          3.79483       -0.97170       -1.32611
H          3.79399        0.80032       -1.46755
H          2.52153        0.18317        1.97542
12 12 12 12 12 12 12 12 12 12 12 12 12 12 12 12 12 12 12 12 12 12 12 12 12 12 12 12 12 12 12
CN(C)C=O
InChI=1S/C3H7NO/c1-4(2)3-5/h3H,1-2H3
