26
metacyc CPD-21088  154.283928896 154.283928896 154.283928896 154.283928896 154.283928896 154.283928896 154.283928896 154.283928896 154.283928896 154.283928896 154.283928896 154.283928896 154.283928896 154.283928896 154.283928896
C          0.92495        0.07064       -0.02285
C          2.44620        0.09837       -0.05974
C          3.01247        0.62627        1.26194
C          4.55545        0.60946        1.33575
C          5.17170        1.53180        0.27355
C          5.08223        1.00986        2.74173
O          4.65202        2.35430        3.04268
C          4.64554        0.09591        3.88392
C          5.11688       -1.34726        3.74156
O          6.24071       -1.51391        3.19594
O          4.31537       -2.20476        4.20979
H          0.52810       -0.30839       -0.96973
H          0.52098        1.07514        0.13841
H          0.56351       -0.57755        0.78185
H          2.76146        0.72896       -0.89702
H          2.82148       -0.91373       -0.24905
H          2.60533        0.00187        2.06450
H          2.64198        1.64403        1.43259
H          4.89711       -0.40952        1.11643
H          4.81523        2.56208        0.37760
H          4.93371        1.19217       -0.73915
H          6.26401        1.54155        0.35565
H          6.17770        1.04710        2.71103
H          3.85354        2.27390        3.59014
H          3.55689        0.12371        4.01294
H          5.05006        0.48290        4.82868
26 26 26 26 26 26 26 26 26 26 26 26 26 26 26 26 26 26 26 26 26 26 26 26 26 26 26 26 26 26 26 26 26 26 26 26 26 26 26 26 26 26 26 26 26 26 26 26 26 26 26 26 26 26 26 26 26 26 26 26 26 26 26 26 26 26 26 26 26 26 26 26 26
CCCC(C)C(O)CC([O-])=O
InChI=1S/C8H16O3/c1-3-4-6(2)7(9)5-8(10)11/h6-7,9H,3-5H2,1-2H3,(H,10,11)/p-1
