22
metacyc CPD-7619  228.289533472 228.289533472 228.289533472 228.289533472 228.289533472 228.289533472 228.289533472 228.289533472 228.289533472 228.289533472 228.289533472 228.289533472 228.289533472 228.289533472 228.289533472
C          0.88800        0.07451       -0.06420
C          2.40851        0.05349       -0.05092
C          2.93987       -1.20139        0.64007
C          4.46913       -1.23138        0.65641
C          4.98416       -2.49405        1.34968
C          6.50801       -2.54223        1.37417
C          7.10517       -3.77949        2.05302
O          6.28861       -4.62186        2.51732
O          8.37021       -3.80119        2.06286
H          0.52467        0.97877       -0.56213
H          0.48691        0.06269        0.95438
H          0.48871       -0.79254       -0.60023
H          2.77672        0.94796        0.46473
H          2.77832        0.09698       -1.08190
H          2.56171       -2.09195        0.12327
H          2.56180       -1.24091        1.66900
H          4.84991       -0.34371        1.17599
H          4.84970       -1.19356       -0.37153
H          4.59596       -3.37968        0.83148
H          4.59798       -2.53089        2.37588
H          6.89429       -1.65798        1.89588
H          6.89207       -2.50920        0.34694
22 22 22 22 22 22 22 22 22 22 22 22 22 22 22 22 22 22 22 22 22 22 22 22 22 22 22 22 22 22 22 22 22 22 22 22 22 22 22 22 22 22 22 22 22 22 22 22 22 22 22 22 22 22 22 22 22 22 22 22 22
CCCCCCC(=O)[O-]
InChI=1S/C7H14O2/c1-2-3-4-5-6-7(8)9/h2-6H2,1H3,(H,8,9)/p-1
