20
metacyc CPD-10901  204.728149168 204.728149168 204.728149168 204.728149168 204.728149168 204.728149168 204.728149168 204.728149168 204.728149168 204.728149168 204.728149168 204.728149168 204.728149168 204.728149168 204.728149168
C         -0.08705       -0.13128        1.10468
N          0.27068        1.08399        0.59817
C          0.25348        0.98556       -0.76275
N         -0.07884       -0.22144       -1.15376
C         -0.34715       -0.92262        0.00367
C         -0.80572       -2.34499       -0.04028
C         -2.32229       -2.56087        0.06381
C         -3.10665       -1.96117       -1.09840
F         -3.04287       -0.59657       -1.08980
C         -2.65554       -4.07607       -0.01333
O         -3.88371       -4.38590       -0.07899
O         -1.66835       -4.87061       -0.02864
N         -2.83999       -2.08181        1.35735
H         -0.15559       -0.32648        2.16499
H          0.49632        1.91088        1.12980
H          0.48712        1.81774       -1.41122
H         -0.29381       -2.88143        0.77213
H         -0.42836       -2.79048       -0.97156
H         -4.17308       -2.20918       -1.07773
H         -2.71019       -2.29961       -2.06294
20 20 20 20 20 20 20 20 20 20 20 20 20 20 20 20 20 20 20 20 20 20 20 20 20 20 20 20 20 20 20 20 20 20 20 20 20 20 20 20 20 20 20 20 20 20 20 20 20 20 20 20 20 20 20
C1(NC=NC=1CC(CF)(C(=O)[O-])[N+])
InChI=1S/C7H10FN3O2/c8-3-7(9,6(12)13)1-5-2-10-4-11-5/h2,4H,1,3,9H2,(H,10,11)(H,12,13)/t7-/m1/s1
