19
metacyc CPD-233  291.68649308 291.68649308 291.68649308 291.68649308 291.68649308 291.68649308 291.68649308 291.68649308 291.68649308 291.68649308 291.68649308 291.68649308 291.68649308 291.68649308 291.68649308
C          2.75563       -1.10376        0.93364
N          1.99660       -2.30443        0.59745
C          2.39375        0.01934       -0.03318
C          3.05764        1.35833        0.31270
C          4.59926        1.37247        0.32750
C          5.19990        0.99894       -1.02285
C          6.71693        0.82933       -0.99739
O          7.19851        0.34511        0.06351
O          7.29556        1.13627       -2.07711
N          4.98842        2.74082        0.69332
H          3.82295       -1.33678        0.88838
H          2.51485       -0.81284        1.96132
H          1.30644        0.17423       -0.01648
H          2.63985       -0.27035       -1.06133
H          2.68696        1.67673        1.29721
H          2.69276        2.10598       -0.40556
H          4.95575        0.70259        1.11667
H          4.91809        1.73289       -1.78782
H          4.81369        0.02880       -1.35557
19 19 19 19 19 19 19 19 19 19 19 19 19 19 19 19 19 19 19 19 19 19 19 19 19 19 19 19 19 19 19 19 19 19 19 19 19 19 19 19 19 19 19 19 19 19 19 19 19 19 19 19
C([N+])CCC(CC(=O)[O-])[N+]
InChI=1S/C6H14N2O2/c7-3-1-2-5(8)4-6(9)10/h5H,1-4,7-8H2,(H,9,10)/p+1/t5-/m0/s1
