20
metacyc CPD-17675  598.7772608 598.7772608 598.7772608 598.7772608 598.7772608 598.7772608 598.7772608 598.7772608 598.7772608 598.7772608 598.7772608 598.7772608 598.7772608 598.7772608 598.7772608
C          3.48198        1.20565       -0.51086
C          2.66613        0.03562        0.01174
C          3.34905       -0.91438        0.94849
C          4.26464       -0.42939        1.89324
C          4.92612       -1.30956        2.75470
C          4.66246       -2.67657        2.69431
C          3.75171       -3.16785        1.76159
C          3.11150       -2.29271        0.88027
N          1.43363       -0.00753       -0.41817
N          0.60823       -0.96649        0.04062
H          4.54265        1.12935       -0.26390
H          3.07961        2.13303       -0.09042
H          3.39265        1.24739       -1.60104
H          4.47444        0.63363        1.97658
H          5.64592       -0.92766        3.47475
H          5.16958       -3.35984        3.37119
H          3.54298       -4.23374        1.71266
H          2.43018       -2.69991        0.13688
H         -0.34610       -0.77753       -0.27232
H          0.58216       -0.99856        1.06141
20 20 20 20 20 20 20 20 20 20 20 20 20 20 20 20 20 20 20 20 20 20 20 20 20 20 20 20 20 20 20 20 20 20 20 20 20 20 20 20 20 20 20 20 20 20 20 20 20 20 20 20 20 20 20
CC(C1(C=CC=CC=1))=NN
InChI=1S/C8H10N2/c1-7(10-9)8-5-3-2-4-6-8/h2-6H,9H2,1H3/b10-7+
