15
metacyc CPD-4861  257.400064928 257.400064928 257.400064928 257.400064928 257.400064928 257.400064928 257.400064928 257.400064928 257.400064928 257.400064928 257.400064928 257.400064928 257.400064928 257.400064928 257.400064928
C          1.06734        0.04461        0.01073
C          2.59054        0.05101        0.02456
C          3.07359       -0.19891        1.43236
H          2.78988       -1.15656        1.90591
N          3.79101        0.68160        2.05108
O          4.09694        0.19764        3.32789
C          3.15684       -1.02172       -0.89693
H          0.67012        0.81458        0.68124
H          0.66743       -0.91922        0.34526
H          0.68542        0.24158       -0.99630
H          2.94960        1.03355       -0.30361
H          4.62945        0.92367        3.70368
H          2.82541       -2.02256       -0.59835
H          4.25207       -1.01762       -0.87029
H          2.84195       -0.85257       -1.93182
15 15 15 15 15 15 15 15 15 15 15 15 15 15 15 15 15 15 15 15 15 15 15 15 15 15 15 15 15 15 15 15 15 15 15 15 15 15 15 15
CC([CH]=NO)C
InChI=1S/C4H9NO/c1-4(2)3-5-6/h3-4,6H,1-2H3/b5-3-
