20
metacyc CPD-14474  259.12482688 259.12482688 259.12482688 259.12482688 259.12482688 259.12482688 259.12482688 259.12482688 259.12482688 259.12482688 259.12482688 259.12482688 259.12482688 259.12482688 259.12482688
C          0.89269       -0.05525       -0.06813
O          0.34005       -0.43308        1.00212
O          0.37291        0.47208       -1.09279
C          2.40654       -0.17788       -0.12451
C          2.95222       -1.36153        0.66391
N          2.50263       -2.64146        0.09962
C          4.48228       -1.28684        0.68632
C          5.13590       -0.62481        1.73764
C          6.52713       -0.49917        1.74747
C          7.28476       -1.03418        0.70751
C          6.65284       -1.68938       -0.34656
C          5.26206       -1.80856       -0.36077
H          2.79998        0.75950        0.29262
H          2.73849       -0.21671       -1.17015
H          2.59761       -1.33321        1.70175
H          4.55445       -0.18837        2.54686
H          7.01648        0.02606        2.56229
H          8.36600       -0.93198        0.71250
H          7.23567       -2.10123       -1.16546
H          4.78202       -2.30460       -1.20178
20 20 20 20 20 20 20 20 20 20 20 20 20 20 20 20 20 20 20 20 20 20 20 20 20 20 20 20 20 20 20 20 20 20 20 20 20 20 20 20 20 20 20 20 20 20 20 20 20 20 20 20 20 20 20
C(=O)([O-])CC([N+])C1(C=CC=CC=1)
InChI=1S/C9H11NO2/c10-8(6-9(11)12)7-4-2-1-3-5-7/h1-5,8H,6,10H2,(H,11,12)/t8-/m1/s1
