17
metacyc CPD-19524  228.269517216 228.269517216 228.269517216 228.269517216 228.269517216 228.269517216 228.269517216 228.269517216 228.269517216 228.269517216 228.269517216 228.269517216 228.269517216 228.269517216 228.269517216
C          1.06462       -0.05325       -0.04690
N          2.50307       -0.12243       -0.04728
C          3.30277       -1.22873       -0.04737
C          4.58495       -0.73931       -0.04772
N          4.59946        0.62254       -0.04791
C          3.33067        0.97088       -0.04767
N          5.70890       -1.56949       -0.04790
C          5.41931       -2.82976       -0.04779
N          4.15926       -3.38154       -0.04748
C          3.01581       -2.62065       -0.04720
O          1.90073       -3.12918       -0.04687
H          0.62754       -1.05134       -0.04658
H          0.74654        0.48513       -0.94366
H          0.74703        0.48548        0.84983
H          2.95897        1.98776       -0.04777
H          6.22073       -3.58608       -0.04792
H          4.03140       -4.38202       -0.04743
17 17 17 17 17 17 17 17 17 17 17 17 17 17 17 17 17 17 17 17 17 17 17 17 17 17 17 17 17 17 17 17 17 17 17 17 17 17 17 17 17 17 17 17 17 17
CN1(C2(=C(N=C1)N=CNC(=O)2))
InChI=1S/C6H6N4O/c1-10-3-9-5-4(10)6(11)8-2-7-5/h2-3H,1H3,(H,7,8,11)
