30
metacyc CPD-11955  94.852037304 94.852037304 94.852037304 94.852037304 94.852037304 94.852037304 94.852037304 94.852037304 94.852037304 94.852037304 94.852037304 94.852037304 94.852037304 94.852037304 94.852037304
C          5.13134       -2.57269        1.57077
N          4.58881       -3.80440        1.01282
C          4.65043       -1.37790        0.75017
C          5.19567       -0.06977        1.32514
C          4.75185        1.13590        0.49478
C          5.25886        2.46020        1.07016
N          6.71377        2.54736        1.13705
O          7.36673        2.27261       -0.07453
C          7.41883        2.91687        2.25725
C          8.92773        3.01029        2.15067
C          9.39119        4.24054        1.38750
C         10.91092        4.41199        1.36717
O         11.58693        3.54849        1.98606
O         11.30785        5.40888        0.70279
O          6.84493        3.15886        3.32425
H          6.22545       -2.62621        1.56384
H          4.80561       -2.47768        2.61205
H          3.55386       -1.34472        0.74140
H          4.97756       -1.48497       -0.29188
H          6.29055       -0.12033        1.35233
H          4.85025        0.05042        2.35891
H          3.65622        1.17052        0.45489
H          5.10141        1.01921       -0.53827
H          4.83290        2.62041        2.06631
H          4.91991        3.28683        0.43567
H          6.92020        2.86538       -0.70485
H          9.31590        2.08816        1.69945
H          9.32055        3.03741        3.17631
H          8.95634        5.14164        1.83536
H          9.04485        4.20224        0.34871
30 30 30 30 30 30 30 30 30 30 30 30 30 30 30 30 30 30 30 30 30 30 30 30 30 30 30 30 30 30 30 30 30 30 30 30 30 30 30 30 30 30 30 30 30 30 30 30 30 30 30 30 30 30 30 30 30 30 30 30 30 30 30 30 30 30 30 30 30 30 30 30 30 30 30 30 30 30 30 30 30 30 30 30 30
C([N+])CCCCN(O)C(CCC([O-])=O)=O
InChI=1S/C9H18N2O4/c10-6-2-1-3-7-11(15)8(12)4-5-9(13)14/h15H,1-7,10H2,(H,13,14)
