21
metacyc CPD-7790  480.928834 480.928834 480.928834 480.928834 480.928834 480.928834 480.928834 480.928834 480.928834 480.928834 480.928834 480.928834 480.928834 480.928834 480.928834
C          1.01608       -0.06612        0.02830
N          0.52266       -1.05450       -0.92157
C          2.54191       -0.06138        0.03035
C          3.09728        0.96844        1.01821
C          4.62672        0.96445        1.01417
C          5.20059        1.98722        1.99287
C          6.71518        1.98285        1.98919
N          7.28036        2.87938        2.84797
O          7.41189        1.25595        1.29329
H          0.63248       -0.30661        1.02506
H          0.63027        0.91990       -0.24997
H          2.91359        0.16394       -0.97744
H          2.91561       -1.05861        0.29564
H          2.73086        0.74539        2.02762
H          2.73057        1.96761        0.75344
H          4.99213        1.17990        0.00226
H          4.99224       -0.03701        1.27381
H          4.85873        1.76584        3.01059
H          4.85921        2.99426        1.72648
H          6.74338        3.49635        3.43984
H          8.29077        2.91859        2.88628
21 21 21 21 21 21 21 21 21 21 21 21 21 21 21 21 21 21 21 21 21 21 21 21 21 21 21 21 21 21 21 21 21 21 21 21 21 21 21 21 21 21 21 21 21 21 21 21 21 21 21 21 21 21 21 21 21 21
C([N+])CCCCC(N)=O
InChI=1S/C6H14N2O/c7-5-3-1-2-4-6(8)9/h1-5,7H2,(H2,8,9)/p+1
