20
metacyc CPD-9933  468.44568172 468.44568172 468.44568172 468.44568172 468.44568172 468.44568172 468.44568172 468.44568172 468.44568172 468.44568172 468.44568172 468.44568172 468.44568172 468.44568172 468.44568172
C          0.98863        0.26384        0.54570
C          2.48032        0.24671        0.50799
C          3.21190        1.18825       -0.10647
C          4.67199        1.12986       -0.09543
C          5.35942        0.44625       -1.10481
C          6.75256        0.34599       -1.06431
C          7.44945        0.93092       -0.01100
O          8.80640        0.83648        0.08161
C          6.77955        1.62474        0.99022
C          5.38815        1.72304        0.95032
H          0.62293       -0.59441        1.11878
H          0.57051        0.19545       -0.46296
H          0.62055        1.17139        1.03360
H          2.97358       -0.57840        1.01787
H          2.75744        2.02834       -0.62276
H          4.81166       -0.01988       -1.92057
H          7.26898       -0.19189       -1.85260
H          9.12444        0.25927       -0.63155
H          7.33656        2.07748        1.80526
H          4.86635        2.25348        1.74287
20 20 20 20 20 20 20 20 20 20 20 20 20 20 20 20 20 20 20 20 20 20 20 20 20 20 20 20 20 20 20 20 20 20 20 20 20 20 20 20 20 20 20 20 20 20 20 20 20 20 20 20 20 20 20
CC=CC1(C=CC(O)=CC=1)
InChI=1S/C9H10O/c1-2-3-8-4-6-9(10)7-5-8/h2-7,10H,1H3/b3-2+
