15
metacyc CPD-15905  326.566990656 326.566990656 326.566990656 326.566990656 326.566990656 326.566990656 326.566990656 326.566990656 326.566990656 326.566990656 326.566990656 326.566990656 326.566990656 326.566990656 326.566990656
C          1.01352        0.01231        0.06390
C          2.54139        0.02313        0.06238
C          3.10798        0.65209        1.35337
C          4.63409        0.68398        1.38904
O          2.63621        1.99779        1.49688
N          3.01362       -1.34910       -0.11048
H          0.61314        1.03002        0.12016
H          0.61685       -0.55352        0.91448
H          0.62331       -0.44087       -0.85458
H          2.86953        0.61645       -0.79934
H          2.74636        0.09757        2.22746
H          5.03406        1.24133        0.53473
H          5.06396       -0.32183        1.38321
H          4.98181        1.20026        2.29069
H          3.04923        2.53916        0.80194
15 15 15 15 15 15 15 15 15 15 15 15 15 15 15 15 15 15 15 15 15 15 15 15 15 15 15 15 15 15 15 15 15 15 15 15 15 15 15 15
CC(C(C)O)[N+]
InChI=1S/C4H11NO/c1-3(5)4(2)6/h3-4,6H,5H2,1-2H3/p+1
