29
metacyc CPD-9426  914.6657044 914.6657044 914.6657044 914.6657044 914.6657044 914.6657044 914.6657044 914.6657044 914.6657044 914.6657044 914.6657044 914.6657044 914.6657044 914.6657044 914.6657044
C          0.70646       -2.06896       -0.20650
C          2.21403       -1.99862       -0.41421
C          2.88069       -1.09440        0.62560
C          4.43483       -1.07728        0.60773
N          5.11795       -0.37778       -0.49327
C          4.87264        1.06464       -0.52667
C          5.32252        1.72881        0.77518
C          4.73269        1.04528        2.00160
C          4.95834       -0.46391        1.93034
C          4.98058       -0.98323       -1.80789
H          0.25220       -2.71810       -0.96221
H          0.25459       -1.07698       -0.29767
H          0.46086       -2.47224        0.78048
H          2.38285       -1.62628       -1.42491
H          2.63441       -3.00949       -0.35671
H          2.56109       -1.45126        1.61479
H          2.47739       -0.08068        0.53151
H          4.77331       -2.12335        0.60828
H          3.81534        1.28156       -0.71740
H          5.44221        1.52341       -1.34508
H          5.03844        2.78866        0.76776
H          6.41773        1.69654        0.83807
H          3.66091        1.26381        2.06847
H          5.19410        1.44963        2.90974
H          4.48526       -0.94774        2.79332
H          6.03476       -0.66578        2.01906
H          5.13001       -2.06700       -1.76478
H          5.75120       -0.59103       -2.48124
H          4.01627       -0.76983       -2.27305
29 29 29 29 29 29 29 29 29 29 29 29 29 29 29 29 29 29 29 29 29 29 29 29 29 29 29 29 29 29 29 29 29 29 29 29 29 29 29 29 29 29 29 29 29 29 29 29 29 29 29 29 29 29 29 29 29 29 29 29 29 29 29 29 29 29 29 29 29 29 29 29 29 29 29 29 29 29 29 29 29 29
CCCC1([N+](CCCC1)C)
InChI=1S/C9H19N/c1-3-6-9-7-4-5-8-10(9)2/h9H,3-8H2,1-2H3/p+1/t9-/m1/s1
