23
metacyc CPD-7969  569.80088512 569.80088512 569.80088512 569.80088512 569.80088512 569.80088512 569.80088512 569.80088512 569.80088512 569.80088512 569.80088512 569.80088512 569.80088512 569.80088512 569.80088512
C          1.03289        0.02476        0.12618
C          2.53026       -0.09262        0.02990
C          3.17076       -1.02473       -0.70623
C          2.47800       -2.07547       -1.53255
C          3.43468       -3.01299       -2.26935
C          2.66498       -4.03986       -3.08104
C          3.46988       -5.03937       -3.86847
O          1.43543       -4.07564       -3.11285
C          3.30622        0.92103        0.82586
H          0.50152       -0.72662       -0.46455
H          0.70900        1.00823       -0.22967
H          0.71297       -0.09233        1.16669
H          4.25949       -1.02671       -0.71139
H          1.83447       -1.57911       -2.27000
H          1.83343       -2.67509       -0.87709
H          4.07089       -3.54775       -1.55541
H          4.07313       -2.44462       -2.95494
H          4.53992       -4.86716       -3.73149
H          3.22802       -4.93653       -4.92977
H          3.22649       -6.04775       -3.52261
H          2.63666        1.60080        1.36462
H          3.93327        1.53186        0.16894
H          3.93923        0.42692        1.56997
23 23 23 23 23 23 23 23 23 23 23 23 23 23 23 23 23 23 23 23 23 23 23 23 23 23 23 23 23 23 23 23 23 23 23 23 23 23 23 23 23 23 23 23 23 23 23 23 23 23 23 23 23 23 23 23 23 23 23 23 23 23 23 23
CC(=CCCC(C)=O)C
InChI=1S/C8H14O/c1-7(2)5-4-6-8(3)9/h5H,4,6H2,1-3H3
