23
metacyc CPD-21087  61.557104184 61.557104184 61.557104184 61.557104184 61.557104184 61.557104184 61.557104184 61.557104184 61.557104184 61.557104184 61.557104184 61.557104184 61.557104184 61.557104184 61.557104184
C          0.89461       -0.17036       -0.01813
C          2.41732       -0.12593       -0.00572
C          2.99593        1.29764        0.14373
C          2.58583        1.92281        1.48638
C          4.54175        1.33097        0.00237
O          5.12829        0.52639        1.04706
C          5.08065        0.85331       -1.34299
C          4.60653        1.67817       -2.53300
O          4.43784        2.90981       -2.32542
O          4.45244        1.01328       -3.59858
H          0.55156       -1.18246       -0.25834
H          0.48745        0.51097       -0.77211
H          0.47440        0.09609        0.95562
H          2.75793       -0.56400       -0.94912
H          2.78617       -0.77416        0.79773
H          2.56383        1.92534       -0.64617
H          2.92737        1.31927        2.33383
H          1.49936        2.02884        1.56318
H          3.01150        2.92674        1.59116
H          4.88940        2.35480        0.18439
H          5.38209       -0.31836        0.63892
H          4.84681       -0.20572       -1.50359
H          6.17732        0.90205       -1.32809
23 23 23 23 23 23 23 23 23 23 23 23 23 23 23 23 23 23 23 23 23 23 23 23 23 23 23 23 23 23 23 23 23 23 23 23 23 23 23 23 23 23 23 23 23 23 23 23 23 23 23 23 23 23 23 23 23 23 23 23 23 23 23 23
CCC(C)C(O)CC([O-])=O
InChI=1S/C7H14O3/c1-3-5(2)6(8)4-7(9)10/h5-6,8H,3-4H2,1-2H3,(H,9,10)/p-1
