22
metacyc CPD-6123  844.32998664 844.32998664 844.32998664 844.32998664 844.32998664 844.32998664 844.32998664 844.32998664 844.32998664 844.32998664 844.32998664 844.32998664 844.32998664 844.32998664 844.32998664
C          0.28412       -1.16345        0.04338
N          1.14165       -0.21216        0.02598
C          2.61288       -0.41152       -0.04489
C          3.29671        0.16352        1.19359
C          4.80504       -0.08940        1.19031
N          5.08075       -1.51778        1.21146
C          0.53628        1.13679       -0.01847
C         -0.95657        0.85787       -0.01069
C         -1.11061       -0.65302        0.01086
H          0.55052       -2.22660        0.05814
H          2.96287        0.08053       -0.95846
H          2.79485       -1.48742       -0.14295
H          2.85257       -0.25784        2.10533
H          3.13443        1.24755        1.24258
H          5.26149        0.37793        2.06855
H          5.26380        0.35618        0.30141
H          0.86721        1.63788       -0.93282
H          0.85183        1.69614        0.86669
H         -1.44293        1.29358       -0.89091
H         -1.43522        1.31197        0.86483
H         -1.61567       -1.02765       -0.88501
H         -1.65560       -1.00429        0.89154
22 22 22 22 22 22 22 22 22 22 22 22 22 22 22 22 22 22 22 22 22 22 22 22 22 22 22 22 22 22 22 22 22 22 22 22 22 22 22 22 22 22 22 22 22 22 22 22 22 22 22 22 22 22 22 22 22 22 22 22 22
C1(=[N+](CCC[N+])CCC1)
InChI=1S/C7H15N2/c8-4-3-7-9-5-1-2-6-9/h5H,1-4,6-8H2/q+1/p+1
