18
metacyc CPD-13578  579.90352968 579.90352968 579.90352968 579.90352968 579.90352968 579.90352968 579.90352968 579.90352968 579.90352968 579.90352968 579.90352968 579.90352968 579.90352968 579.90352968 579.90352968
C          1.04695        0.02374        0.06477
C          2.54345        0.02844        0.07457
N          3.16896        1.21513        0.16123
C          4.50875        1.20262        0.17039
C          5.25255        0.03866        0.11205
C          6.74589        0.00689        0.16521
N          7.35551        0.63529       -1.00324
C          4.51126       -1.12334        0.02958
N          3.16651       -1.15942        0.00674
N          5.11659        2.45261        0.28971
H          0.65020        1.04329        0.05465
H          0.67105       -0.48689        0.95634
H          0.68067       -0.49856       -0.82419
H          7.10578       -1.02692        0.21695
H          7.09517        0.50127        1.07857
H          4.98727       -2.09935       -0.01659
H          4.37537        3.14903        0.25689
H          5.80037        2.60137       -0.44659
18 18 18 18 18 18 18 18 18 18 18 18 18 18 18 18 18 18 18 18 18 18 18 18 18 18 18 18 18 18 18 18 18 18 18 18 18 18 18 18 18 18 18 18 18 18 18 18 18
CC1(=NC(=C(C[N+])C=N1)N)
InChI=1S/C6H10N4/c1-4-9-3-5(2-7)6(8)10-4/h3H,2,7H2,1H3,(H2,8,9,10)/p+1
