10
metacyc CPD-12713  87.5527104 87.5527104 87.5527104 87.5527104 87.5527104 87.5527104 87.5527104 87.5527104 87.5527104 87.5527104 87.5527104 87.5527104 87.5527104 87.5527104 87.5527104
C          0.96082       -0.01674        0.05903
C          2.46403       -0.06002        0.09262
O          3.06671       -0.90570        0.75647
C          3.20193        0.97487       -0.71963
F          2.35570        1.81510       -1.38140
H          0.55477       -0.81536        0.68611
H          0.61284       -0.16252       -0.96655
H          0.61320        0.94502        0.44417
H          3.82285        0.47253       -1.46530
H          3.82059        1.58171       -0.05411
10 10 10 10 10 10 10 10 10 10 10 10 10 10 10 10 10 10 10 10 10 10 10 10 10
CC(=O)CF
InChI=1S/C3H5FO/c1-3(5)2-4/h2H2,1H3
