21
metacyc CPD-19991  373.9709408 373.9709408 373.9709408 373.9709408 373.9709408 373.9709408 373.9709408 373.9709408 373.9709408 373.9709408 373.9709408 373.9709408 373.9709408 373.9709408 373.9709408
C          1.09897       -0.35821       -0.46598
C          2.48986        0.04036        0.00363
C          2.85968        1.39706       -0.53654
C          2.52210        2.54860        0.16916
C          2.78023        3.78930       -0.41453
C          2.41523        5.08140        0.22734
O          2.68062        6.15419       -0.30573
N          1.76048        5.06052        1.42672
C          3.38389        3.83610       -1.67138
C          3.69910        2.64356       -2.29305
N          3.44493        1.43232       -1.75562
H          0.82778       -1.33983       -0.06681
H          1.05203       -0.41000       -1.56025
H          0.34509        0.36477       -0.13524
H          3.22244       -0.70032       -0.33726
H          2.53230        0.04519        1.09928
H          2.05394        2.45144        1.13885
H          1.46096        4.23646        1.92139
H          1.49893        5.95980        1.81158
H          3.59705        4.78032       -2.16209
H          4.16682        2.62775       -3.27305
21 21 21 21 21 21 21 21 21 21 21 21 21 21 21 21 21 21 21 21 21 21 21 21 21 21 21 21 21 21 21 21 21 21 21 21 21 21 21 21 21 21 21 21 21 21 21 21 21 21 21 21 21 21 21 21 21 21
CCC1(C=C(C(=O)N)C=CN=1)
InChI=1S/C8H10N2O/c1-2-7-5-6(8(9)11)3-4-10-7/h3-5H,2H2,1H3,(H2,9,11)
