26
metacyc CPD-6943  457.5070112 457.5070112 457.5070112 457.5070112 457.5070112 457.5070112 457.5070112 457.5070112 457.5070112 457.5070112 457.5070112 457.5070112 457.5070112 457.5070112 457.5070112
C          1.07021        0.02126        0.05187
C          0.52922        0.81590       -1.13585
C         -1.00306        0.88402       -1.16076
C         -1.65062        1.58265        0.04333
C         -1.19689        3.02296        0.25881
C         -1.55203        4.00278       -0.86099
O         -2.64189        3.79288       -1.45894
O         -0.70051        4.92257       -1.03112
N          2.53404        0.07852        0.08298
C          3.10396        0.97493        0.79809
N          2.55781        1.95689        1.55049
N          4.45192        0.97689        0.88568
H          0.77443       -1.02911       -0.05506
H          0.63717        0.35063        1.00054
H          0.87048        0.33988       -2.06436
H          0.95127        1.82697       -1.15076
H         -1.40265       -0.13638       -1.22333
H         -1.31416        1.38879       -2.08247
H         -1.44970        1.00957        0.95481
H         -2.73982        1.55534       -0.08579
H         -0.11762        3.05865        0.43395
H         -1.66610        3.40698        1.17301
H          1.59260        2.16910        1.32303
H          3.08904        2.81081        1.62150
H          4.84780        0.37131        0.17490
H          4.89033        1.88194        0.91554
26 26 26 26 26 26 26 26 26 26 26 26 26 26 26 26 26 26 26 26 26 26 26 26 26 26 26 26 26 26 26 26 26 26 26 26 26 26 26 26 26 26 26 26 26 26 26 26 26 26 26 26 26 26 26 26 26 26 26 26 26 26 26 26 26 26 26 26 26 26 26 26 26
C(CCCCC([O-])=O)[N+]=C(N)N
InChI=1S/C7H15N3O2/c8-7(9)10-5-3-1-2-4-6(11)12/h1-5H2,(H,11,12)(H4,8,9,10)
