16
metacyc CPD-12276  102.0109408 102.0109408 102.0109408 102.0109408 102.0109408 102.0109408 102.0109408 102.0109408 102.0109408 102.0109408 102.0109408 102.0109408 102.0109408 102.0109408 102.0109408
C          0.98334        0.00136        0.09115
C          2.50556        0.01698        0.09668
O          2.95877        1.26790       -0.42392
C          3.07116       -0.19468        1.50513
C          4.59846       -0.21867        1.52397
O          5.13710        1.03294        1.11959
H          0.60412        0.18678       -0.91958
H          0.57860        0.79485        0.72916
H          0.59472       -0.96012        0.43955
H          2.87608       -0.76632       -0.57350
H          2.55867        1.97355        0.11808
H          2.69184       -1.13575        1.91949
H          2.73236        0.62380        2.15238
H          4.99173       -0.99932        0.86528
H          4.95469       -0.42053        2.53909
H          4.72284        1.24971        0.25827
16 16 16 16 16 16 16 16 16 16 16 16 16 16 16 16 16 16 16 16 16 16 16 16 16 16 16 16 16 16 16 16 16 16 16 16 16 16 16 16 16 16 16
CC(O)CCO
InChI=1S/C4H10O2/c1-4(6)2-3-5/h4-6H,2-3H2,1H3
