18
metacyc CPD-17561  54.675838376 54.675838376 54.675838376 54.675838376 54.675838376 54.675838376 54.675838376 54.675838376 54.675838376 54.675838376 54.675838376 54.675838376 54.675838376 54.675838376 54.675838376
C          1.74597       -0.14323       -0.91830
O          2.52786        0.07252        0.25208
C          3.15771       -1.03126        0.75699
C          4.32376       -0.76909        1.48292
C          5.05745       -1.81224        2.05366
C          4.60488       -3.12740        1.90693
N          5.37030       -4.23306        2.49624
O          6.41960       -3.95444        3.09410
O          4.92403       -5.38168        2.35814
C          3.42300       -3.39837        1.20336
C          2.70093       -2.34522        0.63068
H          1.42112        0.83465       -1.28679
H          0.84701       -0.72637       -0.69686
H          2.34045       -0.61854       -1.70621
H          4.66780        0.25699        1.59421
H          5.96893       -1.58171        2.60118
H          3.04965       -4.41498        1.09590
H          1.77775       -2.57795        0.10915
18 18 18 18 18 18 18 18 18 18 18 18 18 18 18 18 18 18 18 18 18 18 18 18 18 18 18 18 18 18 18 18 18 18 18 18 18 18 18 18 18 18 18 18 18 18 18 18 18
COC1(=CC=C([N+]([O-])=O)C=C1)
InChI=1S/C7H7NO3/c1-11-7-4-2-6(3-5-7)8(9)10/h2-5H,1H3
