15
metacyc CPD-16935  29.906564652 29.906564652 29.906564652 29.906564652 29.906564652 29.906564652 29.906564652 29.906564652 29.906564652 29.906564652 29.906564652 29.906564652 29.906564652 29.906564652 29.906564652
C         -0.36340        1.19705        0.02530
C         -1.24826       -0.03694       -0.10108
C         -0.26383       -1.16806        0.00876
O         -0.54799       -2.35762        0.03093
C          1.14168       -0.67110        0.00368
N          2.22992       -1.50208       -0.01199
C          1.02731        0.65747       -0.02773
O          2.07475        1.53998       -0.05632
H         -0.53783        1.70315        0.98150
H         -0.55905        1.90952       -0.78146
H         -1.73190       -0.07810       -1.08104
H         -1.99520       -0.08897        0.69655
H          1.93705       -2.46258       -0.21212
H          2.95840       -1.19777       -0.64918
H          2.89000        1.01862        0.06461
15 15 15 15 15 15 15 15 15 15 15 15 15 15 15 15 15 15 15 15 15 15 15 15 15 15 15 15 15 15 15 15 15 15 15 15 15 15 15 15
C1(CC(=O)C(N)=C(O)1)
InChI=1S/C5H7NO2/c6-5-3(7)1-2-4(5)8/h7H,1-2,6H2
