26
metacyc CPD-21102  169.42999216 169.42999216 169.42999216 169.42999216 169.42999216 169.42999216 169.42999216 169.42999216 169.42999216 169.42999216 169.42999216 169.42999216 169.42999216 169.42999216 169.42999216
C          0.85609        0.06492        0.00641
O          0.38944       -1.16411        0.55064
C          2.37844        0.08721       -0.00503
C          2.92100        1.39944       -0.56851
C          4.44879        1.38774       -0.57989
C          5.02756        2.67476       -1.17017
C          6.56084        2.69452       -1.16987
C          7.17896        1.59389       -2.02866
C          8.70798        1.58251       -2.09975
O          9.30849        2.48328       -1.45506
O          9.18379        0.64642       -2.80561
H          0.45322        0.88308        0.61131
H          0.45733        0.15779       -1.00852
H          0.83620       -1.28963        1.40535
H          2.74726       -0.76173       -0.59445
H          2.75488       -0.06969        1.01331
H          2.56048        2.24125        0.03525
H          2.54599        1.54572       -1.58853
H          4.77998        0.52283       -1.16519
H          4.82521        1.25223        0.44133
H          4.66907        3.53228       -0.58791
H          4.66103        2.81253       -2.19464
H          6.92668        2.61146       -0.13870
H          6.89420        3.67242       -1.53961
H          6.79726        1.67430       -3.05423
H          6.88491        0.60963       -1.64597
26 26 26 26 26 26 26 26 26 26 26 26 26 26 26 26 26 26 26 26 26 26 26 26 26 26 26 26 26 26 26 26 26 26 26 26 26 26 26 26 26 26 26 26 26 26 26 26 26 26 26 26 26 26 26 26 26 26 26 26 26 26 26 26 26 26 26 26 26 26 26 26 26
C(O)CCCCCCC(=O)[O-]
InChI=1S/C8H16O3/c9-7-5-3-1-2-4-6-8(10)11/h9H,1-7H2,(H,10,11)/p-1
