29
metacyc CPD-20367  390.484075856 390.484075856 390.484075856 390.484075856 390.484075856 390.484075856 390.484075856 390.484075856 390.484075856 390.484075856 390.484075856 390.484075856 390.484075856 390.484075856 390.484075856
C          2.67907        0.35652        3.49618
C          2.27158       -0.06257        2.08255
C          0.74413       -0.01446        1.96489
C          2.91596        0.81883        0.98924
C          4.45878        0.80873        0.96620
N          4.98592       -0.51892        0.66781
C          5.13095       -0.95564       -0.62800
O          5.11699       -2.15713       -0.87986
C          5.60927        0.10974       -1.62971
C          7.13429        0.09407       -1.68475
N          5.11741        1.44897       -1.32628
C          4.95339        1.87896       -0.03025
O          4.97417        3.07904        0.22852
H          2.20054       -0.28877        4.24137
H          2.38111        1.38949        3.70489
H          3.75831        0.27238        3.64865
H          2.57953       -1.10405        1.93163
H          0.36927        1.01079        2.05739
H          0.27312       -0.61601        2.75036
H          0.41392       -0.41178        0.99958
H          2.56931        1.85302        1.11979
H          2.53850        0.49685        0.00975
H          4.87103        1.08478        1.94145
H          4.75590       -1.26633        1.31091
H          5.19802       -0.14647       -2.61174
H          7.57728        0.36331       -0.71946
H          7.50486        0.80531       -2.43113
H          7.50494       -0.90136       -1.95341
H          5.38445        2.19499       -1.95721
29 29 29 29 29 29 29 29 29 29 29 29 29 29 29 29 29 29 29 29 29 29 29 29 29 29 29 29 29 29 29 29 29 29 29 29 29 29 29 29 29 29 29 29 29 29 29 29 29 29 29 29 29 29 29 29 29 29 29 29 29 29 29 29 29 29 29 29 29 29 29 29 29 29 29 29 29 29 29 29 29 29
CC(C)CC1(NC(=O)C(C)NC(=O)1)
InChI=1S/C9H16N2O2/c1-5(2)4-7-9(13)10-6(3)8(12)11-7/h5-7H,4H2,1-3H3,(H,10,13)(H,11,12)/t6-,7-/m0/s1
