11
metacyc CPD-18987  171.823169032 171.823169032 171.823169032 171.823169032 171.823169032 171.823169032 171.823169032 171.823169032 171.823169032 171.823169032 171.823169032 171.823169032 171.823169032 171.823169032 171.823169032
C          0.32662        0.98526       -0.12876
C          1.04098       -0.36269        0.15050
C         -0.33952       -1.02462       -0.06782
O         -0.71148       -2.14628       -0.33703
C         -1.05168        0.33078        0.15142
H          0.44058        1.33125       -1.16299
H          0.59798        1.80368        0.54316
H          1.41467       -0.48223        1.17042
H          1.80865       -0.64429       -0.57233
H         -1.42170        0.45773        1.17183
H         -1.83574        0.56346       -0.57038
11 11 11 11 11 11 11 11 11 11 11 11 11 11 11 11 11 11 11 11 11 11 11 11 11 11 11 11
C1(CC(=O)C1)
InChI=1S/C4H6O/c5-4-2-1-3-4/h1-3H2
