19
metacyc CPD-219  291.68649308 291.68649308 291.68649308 291.68649308 291.68649308 291.68649308 291.68649308 291.68649308 291.68649308 291.68649308 291.68649308 291.68649308 291.68649308 291.68649308 291.68649308
C          1.00197        0.09551       -0.07188
N          0.51545       -0.37400       -1.36406
C          2.52750        0.08221       -0.04662
C          3.04962        0.60530        1.29317
C          4.58317        0.58026        1.34899
C          5.16832        1.08085        2.67641
N          4.77229        2.47927        2.89811
C          4.80506        0.22875        3.92448
O          4.50311       -0.97982        3.68382
O          4.90524        0.79227        5.05395
H          0.59993       -0.54800        0.71745
H          0.62583        1.10936        0.10122
H          2.92140        0.70445       -0.86022
H          2.89389       -0.93879       -0.21232
H          2.63167       -0.00375        2.10209
H          2.68493        1.62834        1.44255
H          4.98109        1.19260        0.52863
H          4.93358       -0.44335        1.16221
H          6.26225        1.05354        2.60099
19 19 19 19 19 19 19 19 19 19 19 19 19 19 19 19 19 19 19 19 19 19 19 19 19 19 19 19 19 19 19 19 19 19 19 19 19 19 19 19 19 19 19 19 19 19 19 19 19 19 19 19
C([N+])CCCC([N+])C([O-])=O
InChI=1S/C6H14N2O2/c7-4-2-1-3-5(8)6(9)10/h5H,1-4,7-8H2,(H,9,10)/p+1/t5-/m1/s1
