25
metacyc CPD-8169  622.19397912 622.19397912 622.19397912 622.19397912 622.19397912 622.19397912 622.19397912 622.19397912 622.19397912 622.19397912 622.19397912 622.19397912 622.19397912 622.19397912 622.19397912
C          3.26057        1.22615       -2.47917
C          3.51833        0.48020       -1.19972
C          3.19418       -0.80926       -0.98217
C          2.48155       -1.73147       -1.93299
C          3.46986       -2.50168       -2.81288
C          2.75210       -3.40763       -3.81740
O          1.93096       -2.62699       -4.68277
C          3.74000       -4.19381       -4.66853
C          4.20568        1.27238       -0.11993
H          2.78891        0.61386       -3.25153
H          4.20537        1.59343       -2.89410
H          2.60712        2.08386       -2.29092
H          3.44961       -1.25389       -0.02029
H          1.76409       -1.17340       -2.54374
H          1.88216       -2.43775       -1.34508
H          4.13515       -3.10438       -2.18183
H          4.09911       -1.78445       -3.35596
H          2.09721       -4.10747       -3.28709
H          2.50150       -1.97888       -5.13096
H          4.38200       -3.52123       -5.24826
H          3.20546       -4.81825       -5.39266
H          4.37343       -4.83786       -4.05139
H          4.41523        2.29619       -0.44765
H          5.16090        0.81071        0.15026
H          3.57353        1.33588        0.77192
25 25 25 25 25 25 25 25 25 25 25 25 25 25 25 25 25 25 25 25 25 25 25 25 25 25 25 25 25 25 25 25 25 25 25 25 25 25 25 25 25 25 25 25 25 25 25 25 25 25 25 25 25 25 25 25 25 25 25 25 25 25 25 25 25 25 25 25 25 25
CC(=CCCC(O)C)C
InChI=1S/C8H16O/c1-7(2)5-4-6-8(3)9/h5,8-9H,4,6H2,1-3H3
