22
metacyc CPD-11237  659.7893948 659.7893948 659.7893948 659.7893948 659.7893948 659.7893948 659.7893948 659.7893948 659.7893948 659.7893948 659.7893948 659.7893948 659.7893948 659.7893948 659.7893948
C          0.97803        0.10998       -0.01814
C          2.47509        0.08636       -0.15723
C          3.18306        1.29928       -0.18377
C          4.57484        1.33952       -0.35315
N          5.23286        2.57788       -0.22228
C          5.28856        0.12736       -0.43755
N          6.69703        0.09417       -0.40061
C          4.58728       -1.08339       -0.34496
C          3.18724       -1.12192       -0.23741
C          2.48809       -2.45224       -0.18717
H          0.59687        1.13355        0.06252
H          0.66803       -0.42707        0.88376
H          0.51043       -0.34788       -0.89553
H          2.64085        2.23389       -0.06181
H          4.66395        3.37102       -0.49627
H          6.15542        2.59810       -0.63207
H          7.13422        0.92433       -0.77370
H          7.09091       -0.75876       -0.78203
H          5.14533       -2.01702       -0.35078
H          3.20051       -3.28348       -0.22114
H          1.81574       -2.55803       -1.04459
H          1.91577       -2.54990        0.74073
22 22 22 22 22 22 22 22 22 22 22 22 22 22 22 22 22 22 22 22 22 22 22 22 22 22 22 22 22 22 22 22 22 22 22 22 22 22 22 22 22 22 22 22 22 22 22 22 22 22 22 22 22 22 22 22 22 22 22 22 22
CC1(C=C(N)C(N)=CC(C)=1)
InChI=1S/C8H12N2/c1-5-3-7(9)8(10)4-6(5)2/h3-4H,9-10H2,1-2H3
