24
metacyc CPD-8685  693.73096512 693.73096512 693.73096512 693.73096512 693.73096512 693.73096512 693.73096512 693.73096512 693.73096512 693.73096512 693.73096512 693.73096512 693.73096512 693.73096512 693.73096512
C          3.46993        2.44479        0.54423
C          3.00870        0.99885        0.45059
C          3.54672        0.17776        1.58623
C          4.33312       -0.89907        1.42570
C          4.85771       -1.73506        2.55761
C          6.36000       -1.74477        2.57894
C          7.09767       -1.30777        3.61314
C          8.59566       -1.34305        3.65709
C          9.12145       -2.18171        4.80740
H         10.22125       -2.26178        4.84811
O          8.43551       -2.72988        5.66478
H          3.06392        3.02572       -0.29010
H          4.56226        2.51524        0.50671
H          3.12983        2.90975        1.47587
H          3.31774        0.58382       -0.51585
H          1.91367        0.96352        0.47879
H          3.25978        0.48910        2.58899
H          4.60841       -1.21684        0.42215
H          4.50253       -2.76406        2.42782
H          4.45762       -1.38502        3.51715
H          6.85146       -2.15859        1.70103
H          6.60066       -0.90929        4.49686
H          8.98328       -0.32681        3.78056
H          9.01376       -1.75595        2.73252
24 24 24 24 24 24 24 24 24 24 24 24 24 24 24 24 24 24 24 24 24 24 24 24 24 24 24 24 24 24 24 24 24 24 24 24 24 24 24 24 24 24 24 24 24 24 24 24 24 24 24 24 24 24 24 24 24 24 24 24 24 24 24 24 24 24 24
CCC=CCC=CC[CH]=O
InChI=1S/C9H14O/c1-2-3-4-5-6-7-8-9-10/h3-4,6-7,9H,2,5,8H2,1H3/b4-3-,7-6-
