23
metacyc CPD-821  240.599137616 240.599137616 240.599137616 240.599137616 240.599137616 240.599137616 240.599137616 240.599137616 240.599137616 240.599137616 240.599137616 240.599137616 240.599137616 240.599137616 240.599137616
C          0.44811       -1.18210        0.24155
C         -0.89837       -0.74901       -0.28920
C         -0.98745        0.72151        0.07041
C          0.45066        1.26389        0.11422
N          1.37174       -0.03519       -0.11579
C          2.58490       -0.01396        0.80370
C          1.84031       -0.06966       -1.55116
C          0.57462        2.08120        1.43865
O          0.52992        3.33060        1.28829
O          0.74835        1.38204        2.47715
H          0.82370       -2.10424       -0.21291
H          0.42335       -1.28637        1.33146
H         -1.71710       -1.32841        0.15059
H         -0.95362       -0.88104       -1.37536
H         -1.50090        0.83514        1.03326
H         -1.58709        1.26461       -0.66808
H          0.64923        1.92525       -0.73801
H          3.07844        0.95645        0.71019
H          3.26229       -0.80997        0.47618
H          2.28998       -0.22584        1.83266
H          2.50880        0.77940       -1.71852
H          0.97678       -0.00337       -2.21750
H          2.37324       -1.01057       -1.71817
23 23 23 23 23 23 23 23 23 23 23 23 23 23 23 23 23 23 23 23 23 23 23 23 23 23 23 23 23 23 23 23 23 23 23 23 23 23 23 23 23 23 23 23 23 23 23 23 23 23 23 23 23 23 23 23 23 23 23 23 23 23 23 23
C1(CCC([N+](C)(C)1)C([O-])=O)
InChI=1S/C7H13NO2/c1-8(2)5-3-4-6(8)7(9)10/h6H,3-5H2,1-2H3/t6-/m0/s1
