14
metacyc CPD-13228  308.73305048 308.73305048 308.73305048 308.73305048 308.73305048 308.73305048 308.73305048 308.73305048 308.73305048 308.73305048 308.73305048 308.73305048 308.73305048 308.73305048 308.73305048
C          0.98162       -0.05557        0.07264
C          2.50239       -0.04359        0.07417
C          3.04427        1.28961        0.50533
C          3.83054        2.04723       -0.27252
C          4.34488        3.34582        0.20704
H          4.04474        3.64723        1.22399
O          5.06661        4.04266       -0.49517
H          0.61250       -1.03491       -0.24869
H          0.57967        0.69903       -0.61186
H          0.58233        0.14337        1.07296
H          2.86464       -0.30890       -0.92601
H          2.87137       -0.81256        0.76239
H          2.77530        1.61824        1.50738
H          4.12947        1.75753       -1.27318
14 14 14 14 14 14 14 14 14 14 14 14 14 14 14 14 14 14 14 14 14 14 14 14 14 14 14 14 14 14 14 14 14 14 14 14 14
CCC=C[CH]=O
InChI=1S/C5H8O/c1-2-3-4-5-6/h3-5H,2H2,1H3/b4-3+
