24
metacyc CPD-20958  573.93835904 573.93835904 573.93835904 573.93835904 573.93835904 573.93835904 573.93835904 573.93835904 573.93835904 573.93835904 573.93835904 573.93835904 573.93835904 573.93835904 573.93835904
C          1.06805        0.05879       -0.15639
C          2.59207       -0.03611       -0.02116
C          3.02533       -0.42823        1.41081
C          2.62485        0.57495        2.46841
C          1.43139        0.40940        3.18408
C          1.03734        1.35265        4.13272
C          1.84083        2.46392        4.38390
C          3.03556        2.63190        3.68670
C          3.42667        1.69612        2.72914
N          3.04695       -1.04233       -1.00454
O          4.50051       -1.01050       -0.98645
H          0.66188        0.86514        0.46214
H          0.58036       -0.87709        0.14027
H          0.77525        0.27840       -1.18962
H          3.01977        0.94047       -0.28428
H          4.11718       -0.54021        1.45731
H          2.62138       -1.41502        1.67279
H          0.79298       -0.45112        2.99361
H          0.10185        1.22316        4.66992
H          1.53114        3.20055        5.12103
H          3.66127        3.49860        3.88545
H          4.35833        1.84237        2.18741
H          2.83645       -0.70019       -1.94704
H          4.71557       -1.94628       -0.80118
24 24 24 24 24 24 24 24 24 24 24 24 24 24 24 24 24 24 24 24 24 24 24 24 24 24 24 24 24 24 24 24 24 24 24 24 24 24 24 24 24 24 24 24 24 24 24 24 24 24 24 24 24 24 24 24 24 24 24 24 24 24 24 24 24 24 24
CC(CC1(C=CC=CC=1))NO
InChI=1S/C9H13NO/c1-8(10-11)7-9-5-3-2-4-6-9/h2-6,8,10-11H,7H2,1H3
