23
metacyc CPD-11876  13.310165904 13.310165904 13.310165904 13.310165904 13.310165904 13.310165904 13.310165904 13.310165904 13.310165904 13.310165904 13.310165904 13.310165904 13.310165904 13.310165904 13.310165904
C          3.22637       -1.09993       -0.51006
O          2.53159        0.11920       -0.25350
C          3.23477        1.06533        0.44888
C          2.75245        2.37192        0.35337
O          1.65470        2.65051       -0.41509
C          3.37586        3.42537        1.00885
C          4.53229        3.18082        1.74871
C          5.05718        1.88272        1.84100
C          6.33799        1.64641        2.61154
O          6.00125        1.36663        3.96015
C          7.20603        0.56507        1.97797
O          7.43514       -0.51761        2.51915
C          4.36425        0.81851        1.23010
H          2.64266       -1.67484       -1.23373
H          3.31247       -1.69973        0.40269
H          4.21160       -0.91135       -0.95090
H          1.39539        1.79311       -0.80425
H          2.97189        4.43103        0.93341
H          5.02111        4.01046        2.25589
H          6.94863        2.55698        2.60200
H          6.00256        0.39436        4.04737
H          7.60205        0.79529        0.97276
H          4.72124       -0.19689        1.37249
23 23 23 23 23 23 23 23 23 23 23 23 23 23 23 23 23 23 23 23 23 23 23 23 23 23 23 23 23 23 23 23 23 23 23 23 23 23 23 23 23 23 23 23 23 23 23 23 23 23 23 23 23 23 23 23 23 23 23 23 23 23 23 23
COC1(=C(O)C=CC(C(O)C=O)=C1)
InChI=1S/C9H10O4/c1-13-9-4-6(8(12)5-10)2-3-7(9)11/h2-5,8,11-12H,1H3/t8-/m0/s1
