19
metacyc CPD-10596  388.2802208 388.2802208 388.2802208 388.2802208 388.2802208 388.2802208 388.2802208 388.2802208 388.2802208 388.2802208 388.2802208 388.2802208 388.2802208 388.2802208 388.2802208
C          1.00187        0.20052       -0.10764
C          2.49742       -0.08231       -0.10260
C          2.85793       -1.10433       -1.14998
C          3.21041       -0.69913       -2.44571
C          3.46891       -1.64649       -3.43840
C          3.37026       -3.00042       -3.13515
O          3.58002       -3.95653       -4.08416
C          3.04342       -3.42027       -1.85161
C          2.78425       -2.47362       -0.85980
H          0.75251        0.95357        0.64685
H          0.42663       -0.70446        0.11296
H          0.67291        0.57469       -1.08333
H          2.80664       -0.43903        0.88704
H          3.05259        0.84680       -0.28095
H          3.27263        0.35883       -2.68993
H          3.73129       -1.31030       -4.43654
H          3.68152       -3.51676       -4.94368
H          2.97492       -4.48046       -1.62756
H          2.50989       -2.81076        0.13727
19 19 19 19 19 19 19 19 19 19 19 19 19 19 19 19 19 19 19 19 19 19 19 19 19 19 19 19 19 19 19 19 19 19 19 19 19 19 19 19 19 19 19 19 19 19 19 19 19 19 19 19
CCC1(C=CC(O)=CC=1)
InChI=1S/C8H10O/c1-2-7-3-5-8(9)6-4-7/h3-6,9H,2H2,1H3
