22
metacyc CPD-2748  738.40282184 738.40282184 738.40282184 738.40282184 738.40282184 738.40282184 738.40282184 738.40282184 738.40282184 738.40282184 738.40282184 738.40282184 738.40282184 738.40282184 738.40282184
C          0.32108       -1.18731        0.14048
C         -1.02373       -0.72332       -0.39273
C         -1.14556        0.68454        0.14803
C          0.30390        1.18689        0.20176
H          0.51105        1.81082       -0.67824
N          1.17924       -0.00286        0.18093
C          0.54740        2.00015        1.45856
C          0.33294        3.37706        1.46380
N          0.45510        4.17974        2.55654
C          0.82098        3.56597        3.70146
C          1.05927        2.20626        3.81413
C          0.91236        1.42036        2.67800
H          0.73051       -1.98893       -0.48208
H          0.19376       -1.60103        1.14904
H         -1.84454       -1.36984       -0.06710
H         -1.01491       -0.71140       -1.48903
H         -1.61914        0.66827        1.13742
H         -1.76890        1.31279       -0.49840
H          0.02982        3.88670        0.55511
H          0.92309        4.21686        4.56260
H          1.35155        1.76077        4.75670
H          1.08314        0.34737        2.72706
22 22 22 22 22 22 22 22 22 22 22 22 22 22 22 22 22 22 22 22 22 22 22 22 22 22 22 22 22 22 22 22 22 22 22 22 22 22 22 22 22 22 22 22 22 22 22 22 22 22 22 22 22 22 22 22 22 22 22 22 22
C1(CC[CH]([N+]1)C2(C=NC=CC=2))
InChI=1S/C9H12N2/c1-3-8(7-10-5-1)9-4-2-6-11-9/h1,3,5,7,9,11H,2,4,6H2/p+1/t9-/m0/s1
