29
metacyc CPD-15280  384.6217312 384.6217312 384.6217312 384.6217312 384.6217312 384.6217312 384.6217312 384.6217312 384.6217312 384.6217312 384.6217312 384.6217312 384.6217312 384.6217312 384.6217312
C          1.06280       -0.51746        0.29443
N          2.53634       -0.23835        0.18373
C          3.09676        0.30294        1.48174
C          3.25800       -1.54528       -0.15704
C          2.87325        0.78295       -1.04191
C          2.28159        2.19852       -0.89693
C          0.79628        2.31581       -0.98991
C         -0.01541        3.27670       -0.42305
N         -1.28724        2.95271       -0.80370
C         -1.21070        1.82369       -1.56675
N          0.03103        1.41642       -1.69799
C          4.41671        1.00166       -1.26780
O          4.95358        1.86882       -0.51975
O          4.94628        0.15155       -2.03766
H          0.91981       -1.33475        1.00906
H          0.68320       -0.82268       -0.68378
H          0.55579        0.36457        0.68754
H          2.84099       -0.40406        2.27759
H          2.63543        1.26882        1.69704
H          4.18287        0.38859        1.40968
H          2.95792       -2.29922        0.57761
H          4.33753       -1.39639       -0.09398
H          2.95523       -1.86074       -1.15983
H          2.45900        0.29122       -1.93188
H          2.68238        2.82717       -1.70607
H          2.61376        2.67348        0.03333
H          0.20190        4.14253        0.18722
H         -2.13223        3.45737       -0.57201
H         -2.08416        1.34914       -1.99420
29 29 29 29 29 29 29 29 29 29 29 29 29 29 29 29 29 29 29 29 29 29 29 29 29 29 29 29 29 29 29 29 29 29 29 29 29 29 29 29 29 29 29 29 29 29 29 29 29 29 29 29 29 29 29 29 29 29 29 29 29 29 29 29 29 29 29 29 29 29 29 29 29 29 29 29 29 29 29 29 29 29
C[N+](C)(C)C(CC1(=CNC=N1))C(=O)[O-]
InChI=1S/C9H15N3O2/c1-12(2,3)8(9(13)14)4-7-5-10-6-11-7/h5-6,8H,4H2,1-3H3,(H-,10,11,13,14)/t8-/m0/s1
