11
metacyc CPD-18958  68.603889032 68.603889032 68.603889032 68.603889032 68.603889032 68.603889032 68.603889032 68.603889032 68.603889032 68.603889032 68.603889032 68.603889032 68.603889032 68.603889032 68.603889032
C          0.99064       -0.07128        0.08178
C          2.50540       -0.09339       -0.01056
O          2.93108       -1.03484       -1.00543
C          2.94734       -0.56988       -2.28028
H          3.29134       -1.37544       -2.94744
O          2.63634        0.54781       -2.65655
H          0.65921        0.61619        0.86521
H          0.60565       -1.07224        0.30386
H          0.54193        0.23823       -0.86700
H          2.92669       -0.42355        0.94470
H          2.91024        0.90549       -0.21264
11 11 11 11 11 11 11 11 11 11 11 11 11 11 11 11 11 11 11 11 11 11 11 11 11 11 11 11
CCO[CH]=O
InChI=1S/C3H6O2/c1-2-5-3-4/h3H,2H2,1H3
