19
metacyc CPD-13319  288.23090656 288.23090656 288.23090656 288.23090656 288.23090656 288.23090656 288.23090656 288.23090656 288.23090656 288.23090656 288.23090656 288.23090656 288.23090656 288.23090656 288.23090656
C          1.07455       -0.05071       -0.04603
N          2.52578        0.02519        0.00982
C          3.27957        1.19215       -0.06744
N          2.59874        2.36581       -0.16000
N          4.58282        1.27049       -0.07565
C          5.36882        0.12094        0.00219
O          6.59418        0.16279        0.05127
C          4.62325       -1.14015        0.02359
N          5.07614       -2.44236        0.03601
C          3.98531       -3.18149        0.03005
N          2.84566       -2.41597        0.02791
C          3.25179       -1.11801        0.02713
H          0.58465        0.92652       -0.05726
H          0.69220       -0.58529        0.83163
H          0.74950       -0.58488       -0.94570
H          1.86086        2.48181        0.52092
H          3.25000        3.14410       -0.10116
H          3.95486       -4.26327        0.02332
H          1.89935       -2.76606        0.01489
19 19 19 19 19 19 19 19 19 19 19 19 19 19 19 19 19 19 19 19 19 19 19 19 19 19 19 19 19 19 19 19 19 19 19 19 19 19 19 19 19 19 19 19 19 19 19 19 19 19 19 19
CN2(C(N)=NC(=O)C1(N=CNC=12))
InChI=1S/C6H7N5O/c1-11-4-3(8-2-9-4)5(12)10-6(11)7/h2H,1H3,(H,8,9)(H2,7,10,12)
