12
metacyc CPD-19045  435.75929048 435.75929048 435.75929048 435.75929048 435.75929048 435.75929048 435.75929048 435.75929048 435.75929048 435.75929048 435.75929048 435.75929048 435.75929048 435.75929048 435.75929048
C          1.04684        0.07964        0.05929
C          2.54034        0.08634        0.06539
C          3.26667        0.92023        0.82503
C          4.76022        0.94433        0.84700
H          0.68080       -0.68308       -0.63552
H          0.65304        1.04668       -0.26821
H          0.65304       -0.15651        1.05259
H          3.03731       -0.62884       -0.58611
H          2.76300        1.63322        1.47454
H          5.19630        0.20216        0.17091
H          5.12120        0.73798        1.85916
H          5.12120        1.93293        0.54742
12 12 12 12 12 12 12 12 12 12 12 12 12 12 12 12 12 12 12 12 12 12 12 12 12 12 12 12 12 12 12
CC=CC
InChI=1S/C4H8/c1-3-4-2/h3-4H,1-2H3/b4-3-
