14
metacyc CPD-1022  335.89264968 335.89264968 335.89264968 335.89264968 335.89264968 335.89264968 335.89264968 335.89264968 335.89264968 335.89264968 335.89264968 335.89264968 335.89264968 335.89264968 335.89264968
C          1.03112       -0.07598       -0.06475
C          0.46405        0.78214        1.06147
C         -1.06334        0.76487        1.03350
N         -1.59152        1.57136        2.13568
O         -3.03610        1.52405        1.97831
N          2.48772       -0.05194       -0.02787
H          0.69370        0.29690       -1.03740
H          0.68876       -1.11127        0.03250
H          0.82569        1.81369        0.96167
H          0.82126        0.40669        2.02958
H         -1.42123       -0.26720        1.13409
H         -1.42364        1.15519        0.07359
H         -1.38511        2.55958        1.96065
H         -3.32292        1.20701        2.85730
14 14 14 14 14 14 14 14 14 14 14 14 14 14 14 14 14 14 14 14 14 14 14 14 14 14 14 14 14 14 14 14 14 14 14 14 14
C(CCNO)[N+]
InChI=1S/C3H10N2O/c4-2-1-3-5-6/h5-6H,1-4H2/p+1
