18
metacyc CPD-702  0.158333785672 0.158333785672 0.158333785672 0.158333785672 0.158333785672 0.158333785672 0.158333785672 0.158333785672 0.158333785672 0.158333785672 0.158333785672 0.158333785672 0.158333785672 0.158333785672 0.158333785672
C          1.01842        0.11790        0.05458
O          0.39615        1.21500       -0.60086
C          2.51847        0.15662       -0.10495
C          3.21722        1.37470       -0.11275
C          4.60862        1.40011       -0.24452
C          5.31187        0.19487       -0.35053
C          4.63478       -1.02982       -0.31041
C          3.24266       -1.04346       -0.18362
N          6.77208        0.21363       -0.50668
O          7.33252        1.31787       -0.55801
O          7.35665       -0.87558       -0.58572
H          0.60692       -0.79750       -0.38379
H          0.75382        0.14515        1.11597
H          0.74134        1.23414       -1.50970
H          2.67516        2.31518       -0.01548
H          5.12153        2.35957       -0.25936
H          5.17013       -1.97484       -0.37495
H          2.72537       -2.00118       -0.14574
18 18 18 18 18 18 18 18 18 18 18 18 18 18 18 18 18 18 18 18 18 18 18 18 18 18 18 18 18 18 18 18 18 18 18 18 18 18 18 18 18 18 18 18 18 18 18 18 18
C(O)C1(C=CC(=CC=1)[N+]([O-])=O)
InChI=1S/C7H7NO3/c9-5-6-1-3-7(4-2-6)8(10)11/h1-4,9H,5H2
