14
metacyc CPD-19028  361.242267216 361.242267216 361.242267216 361.242267216 361.242267216 361.242267216 361.242267216 361.242267216 361.242267216 361.242267216 361.242267216 361.242267216 361.242267216 361.242267216 361.242267216
C          1.21036       -0.33046        1.24187
C          1.89705       -0.08140        0.11893
C          3.08516        0.77997       -0.01357
C          4.42047        0.12814        0.21587
O          3.14437        1.79016       -1.03821
C          2.93016        2.25571        0.29752
H          0.34459       -0.98419        1.22867
H          1.49535        0.11328        2.19007
H          1.56151       -0.55360       -0.80384
H          4.56425       -0.70498       -0.48069
H          4.48997       -0.25956        1.23768
H          5.24685        0.83151        0.06807
H          1.94889        2.64861        0.53415
H          3.74570        2.77448        0.78532
14 14 14 14 14 14 14 14 14 14 14 14 14 14 14 14 14 14 14 14 14 14 14 14 14 14 14 14 14 14 14 14 14 14 14 14 14
C=CC1(C)(OC1)
InChI=1S/C5H8O/c1-3-5(2)4-6-5/h3H,1,4H2,2H3/t5-/m1/s1
