11
metacyc CPD-13343  30.5341571208 30.5341571208 30.5341571208 30.5341571208 30.5341571208 30.5341571208 30.5341571208 30.5341571208 30.5341571208 30.5341571208 30.5341571208 30.5341571208 30.5341571208 30.5341571208 30.5341571208
C          1.53672        0.07637        1.03352
C          2.43559       -0.03403        0.04549
C          3.25136       -1.26898       -0.25096
N          2.95509       -1.75252       -1.60702
C          4.78593       -1.01155       -0.19226
O          5.19883        0.11815       -0.59710
O          5.46892       -1.96839        0.28943
H          1.00449        1.00726        1.19137
H          1.32958       -0.75199        1.70265
H          2.63947        0.82437       -0.59271
H          3.00198       -2.06636        0.45952
11 11 11 11 11 11 11 11 11 11 11 11 11 11 11 11 11 11 11 11 11 11 11 11 11 11 11 11
C=CC([N+])C(=O)[O-]
InChI=1S/C4H7NO2/c1-2-3(5)4(6)7/h2-3H,1,5H2,(H,6,7)
