15
metacyc CPD-20029  412.0714908 412.0714908 412.0714908 412.0714908 412.0714908 412.0714908 412.0714908 412.0714908 412.0714908 412.0714908 412.0714908 412.0714908 412.0714908 412.0714908 412.0714908
C          1.01684        0.04386        0.01362
N          0.43089        0.19026        1.34353
C          2.55103       -0.01298        0.07909
O          3.05914        1.23636        0.56814
C          3.13026       -1.13842        0.94958
C          2.72045       -2.54925        0.54024
N          3.12394       -2.84927       -0.82706
H          0.70849        0.90708       -0.58556
H          0.61099       -0.85380       -0.46176
H          2.93385       -0.11198       -0.94289
H          2.61021        1.41779        1.41398
H          2.85289       -0.97600        1.99903
H          4.22666       -1.05734        0.93717
H          1.63908       -2.68661        0.63581
H          3.19461       -3.27335        1.21187
15 15 15 15 15 15 15 15 15 15 15 15 15 15 15 15 15 15 15 15 15 15 15 15 15 15 15 15 15 15 15 15 15 15 15 15 15 15 15 15
C([N+])C(O)CC[N+]
InChI=1S/C4H12N2O/c5-2-1-4(7)3-6/h4,7H,1-3,5-6H2/p+2
