23
metacyc CPD-13323  586.91344512 586.91344512 586.91344512 586.91344512 586.91344512 586.91344512 586.91344512 586.91344512 586.91344512 586.91344512 586.91344512 586.91344512 586.91344512 586.91344512 586.91344512
C          0.90643       -0.06042       -0.01538
C          2.42700       -0.07119       -0.00303
C          2.96915       -0.87657        1.17718
C          4.49935       -0.88530        1.19547
C          5.02996       -1.69489        2.38073
C          6.53252       -1.70028        2.41864
C          7.24072       -1.21827        3.44996
C          8.71653       -1.26224        3.44129
H          9.18859       -1.70620        2.54952
O          9.37137       -0.82756        4.38008
H          0.53781        0.52027       -0.86670
H          0.50998        0.39004        0.90024
H          0.50758       -1.07648       -0.09883
H          2.79348        0.96055        0.04970
H          2.79157       -0.49792       -0.94462
H          2.59691       -1.90681        1.12033
H          2.59403       -0.44921        2.11519
H          4.87153        0.14537        1.25240
H          4.87498       -1.31084        0.25626
H          4.68205       -2.73215        2.30573
H          4.62185       -1.28935        3.31476
H          7.03509       -2.13664        1.55757
H          6.78278       -0.78203        4.33025
23 23 23 23 23 23 23 23 23 23 23 23 23 23 23 23 23 23 23 23 23 23 23 23 23 23 23 23 23 23 23 23 23 23 23 23 23 23 23 23 23 23 23 23 23 23 23 23 23 23 23 23 23 23 23 23 23 23 23 23 23 23 23 23
CCCCCC=C[CH]=O
InChI=1S/C8H14O/c1-2-3-4-5-6-7-8-9/h6-8H,2-5H2,1H3/b7-6+
