29
metacyc CPD-14692  385.17117408 385.17117408 385.17117408 385.17117408 385.17117408 385.17117408 385.17117408 385.17117408 385.17117408 385.17117408 385.17117408 385.17117408 385.17117408 385.17117408 385.17117408
C          0.93643        0.36098        0.15306
C          2.45008        0.21133       -0.03860
C          2.90808       -1.23985       -0.31452
O          2.38282       -2.07759        0.71851
C          2.52133       -1.69877       -1.76253
N          3.03206       -3.05266       -2.15655
C          2.58034       -4.12120       -1.25992
C          2.65575       -3.41337       -3.53132
C          3.03563       -0.61688       -2.73744
C          2.55644        0.77549       -2.34946
O          3.12691        1.73317       -3.22413
O          2.93650        1.11534       -1.03098
H          0.58501       -0.21045        1.01865
H          0.37182        0.02170       -0.72040
H          0.67460        1.41254        0.30883
H          2.90594        0.52666        0.90873
H          4.00239       -1.27259       -0.23115
H          1.46480       -2.30093        0.48926
H          1.42590       -1.73653       -1.82483
H          3.08158       -4.06806       -0.29100
H          2.84687       -5.11011       -1.65509
H          1.49339       -4.10514       -1.11603
H          3.17761       -2.79146       -4.26422
H          1.57533       -3.33188       -3.69475
H          2.95959       -4.44020       -3.76626
H          2.70874       -0.79975       -3.76626
H          4.13443       -0.63310       -2.75281
H          1.47101        0.85706       -2.46296
H          4.08294        1.69185       -3.05659
29 29 29 29 29 29 29 29 29 29 29 29 29 29 29 29 29 29 29 29 29 29 29 29 29 29 29 29 29 29 29 29 29 29 29 29 29 29 29 29 29 29 29 29 29 29 29 29 29 29 29 29 29 29 29 29 29 29 29 29 29 29 29 29 29 29 29 29 29 29 29 29 29 29 29 29 29 29 29 29 29 29
CC1(C(O)C([N+](C)C)CC(O)O1)
InChI=1S/C8H17NO3/c1-5-8(11)6(9(2)3)4-7(10)12-5/h5-8,10-11H,4H2,1-3H3/p+1/t5-,6+,7-,8-/m0/s1
