21
metacyc CPD-20037  661.58855664 661.58855664 661.58855664 661.58855664 661.58855664 661.58855664 661.58855664 661.58855664 661.58855664 661.58855664 661.58855664 661.58855664 661.58855664 661.58855664 661.58855664
C          2.60179        1.24927       -1.91726
C          2.28300        1.89273       -0.57447
C          2.98655        1.21078        0.60459
C          4.49395        1.27370        0.54603
C          5.16169        2.50632        0.52124
C          6.55433        2.55768        0.44096
C          7.29462        1.37855        0.39913
C          6.64403        0.14757        0.44383
C          5.25059        0.09420        0.51828
H          2.04778        1.75306       -2.71561
H          2.31945        0.19193       -1.92230
H          3.66724        1.32326       -2.15654
H          1.19970        1.84037       -0.41082
H          2.54128        2.95694       -0.61543
H          2.65604        0.16558        0.66024
H          2.66172        1.68228        1.54089
H          4.60055        3.43674        0.55644
H          7.05998        3.51933        0.40818
H          8.37834        1.41904        0.33327
H          7.22066       -0.77310        0.41606
H          4.76016       -0.87604        0.54786
21 21 21 21 21 21 21 21 21 21 21 21 21 21 21 21 21 21 21 21 21 21 21 21 21 21 21 21 21 21 21 21 21 21 21 21 21 21 21 21 21 21 21 21 21 21 21 21 21 21 21 21 21 21 21 21 21 21
CCCC1(C=CC=CC=1)
InChI=1S/C9H12/c1-2-6-9-7-4-3-5-8-9/h3-5,7-8H,2,6H2,1H3
