30
metacyc CPD-20378  138.11461404 138.11461404 138.11461404 138.11461404 138.11461404 138.11461404 138.11461404 138.11461404 138.11461404 138.11461404 138.11461404 138.11461404 138.11461404 138.11461404 138.11461404
C          0.26635        0.02164       -1.86580
C          1.74917       -0.23377       -2.11413
C          2.68388        0.57570       -1.19043
C          2.47590        0.21431        0.28606
C          4.18845        0.50978       -1.56114
C          4.89938       -0.84229       -1.37837
N          4.45863       -1.86821       -2.16384
C          5.05068       -3.21993       -2.27992
C          5.05461       -4.00816       -0.96557
O          5.73871       -5.26205       -1.06851
C          4.25394       -4.07549       -3.32276
O          3.36809       -3.42354       -3.96012
O          4.57755       -5.29569       -3.40471
O          5.80128       -0.97085       -0.54912
N          4.42792        0.96756       -2.93160
H         -0.33139       -0.49604       -2.62275
H          0.03224        1.08840       -1.91865
H         -0.04632       -0.35861       -0.88858
H          1.95724        0.01588       -3.16137
H          1.92373       -1.30634       -1.99276
H          2.38906        1.63247       -1.29280
H          2.65398       -0.84982        0.46638
H          1.45744        0.44834        0.61122
H          3.15240        0.78982        0.92668
H          4.71930        1.21388       -0.90421
H          3.82323       -1.68910       -2.94365
H          6.07414       -3.10289       -2.65611
H          4.03485       -4.20066       -0.61420
H          5.56737       -3.44784       -0.17876
H          5.40270       -5.65847       -1.91445
30 30 30 30 30 30 30 30 30 30 30 30 30 30 30 30 30 30 30 30 30 30 30 30 30 30 30 30 30 30 30 30 30 30 30 30 30 30 30 30 30 30 30 30 30 30 30 30 30 30 30 30 30 30 30 30 30 30 30 30 30 30 30 30 30 30 30 30 30 30 30 30 30 30 30 30 30 30 30 30 30 30 30 30 30
CCC(C)C(C(NC(CO)C([O-])=O)=O)[N+]
InChI=1S/C9H18N2O4/c1-3-5(2)7(10)8(13)11-6(4-12)9(14)15/h5-7,12H,3-4,10H2,1-2H3,(H,11,13)(H,14,15)/t5-,6-,7-/m0/s1
