15
metacyc CPD-4482  147.23065048 147.23065048 147.23065048 147.23065048 147.23065048 147.23065048 147.23065048 147.23065048 147.23065048 147.23065048 147.23065048 147.23065048 147.23065048 147.23065048 147.23065048
C          1.05521       -0.16901       -0.06770
C          2.55088       -0.04282        0.05266
C          3.21175        0.91554        0.73102
C          2.60382        2.02742        1.49407
O          3.30579        2.84278        2.08129
C          3.32549       -1.09275       -0.70277
O          3.00823       -2.37448       -0.18427
H          0.50418        0.62422        0.44052
H          0.71761       -1.11919        0.35878
H          0.76073       -0.14087       -1.12230
H          4.29862        0.93399        0.75465
H          1.50704        2.09182        1.50922
H          4.40947       -0.95332       -0.63132
H          3.05837       -1.07092       -1.76390
H          3.32278       -2.39523        0.73518
15 15 15 15 15 15 15 15 15 15 15 15 15 15 15 15 15 15 15 15 15 15 15 15 15 15 15 15 15 15 15 15 15 15 15 15 15 15 15 15
CC(=CC=O)CO
InChI=1S/C5H8O2/c1-5(4-7)2-3-6/h2-3,7H,4H2,1H3/b5-2-
