21
metacyc CPD-6501  238.40936172 238.40936172 238.40936172 238.40936172 238.40936172 238.40936172 238.40936172 238.40936172 238.40936172 238.40936172 238.40936172 238.40936172 238.40936172 238.40936172 238.40936172
C          7.32206        0.37956       -1.27609
C          6.10397        1.01207       -0.67673
O          5.62832        2.07574       -1.04785
O          5.61255        0.21701        0.31163
C          4.47397        0.74513        1.00743
C          4.92006        1.68813        2.09387
C          4.52540        3.03259        2.07314
C          4.96509        3.91365        3.06171
C          5.80437        3.46024        4.07753
C          6.20094        2.12448        4.10998
C          5.75902        1.24080        3.12459
H          7.76786        1.06692       -2.00049
H          7.04224       -0.54350       -1.78916
H          8.05963        0.17798       -0.49472
H          3.94586       -0.10118        1.46260
H          3.76773        1.21034        0.31019
H          3.88972        3.40627        1.27272
H          4.66194        4.95683        3.03102
H          6.15550        4.15022        4.84019
H          6.86258        1.77295        4.89701
H          6.08457        0.20311        3.15272
21 21 21 21 21 21 21 21 21 21 21 21 21 21 21 21 21 21 21 21 21 21 21 21 21 21 21 21 21 21 21 21 21 21 21 21 21 21 21 21 21 21 21 21 21 21 21 21 21 21 21 21 21 21 21 21 21 21
CC(=O)OCC1(C=CC=CC=1)
InChI=1S/C9H10O2/c1-8(10)11-7-9-5-3-2-4-6-9/h2-6H,7H2,1H3
