15
metacyc CPD-18142  283.07107224 283.07107224 283.07107224 283.07107224 283.07107224 283.07107224 283.07107224 283.07107224 283.07107224 283.07107224 283.07107224 283.07107224 283.07107224 283.07107224 283.07107224
C          1.57031       -0.60543        0.28447
C          2.04640        0.50006       -0.32188
C          2.84276        1.14158        0.67244
C          2.82707        0.19425        1.79961
N          2.04022       -0.82951        1.57413
C          3.66416        0.49619        3.00659
O          3.94332       -0.34989        3.84139
C          4.16319        1.89434        3.09332
C          4.04140        2.72382        2.04626
C          3.44535        2.32523        0.78546
H          0.86824       -1.30457       -0.15662
H          1.82671        0.85009       -1.31468
H          4.61351        2.19112        4.03577
H          4.37573        3.75496        2.12802
H          3.43078        3.04472       -0.03147
15 15 15 15 15 15 15 15 15 15 15 15 15 15 15 15 15 15 15 15 15 15 15 15 15 15 15 15 15 15 15 15 15 15 15 15 15 15 15 15
C1(=CC2(C(=N1)C(=O)C=CC=2))
InChI=1S/C8H5NO/c10-7-3-1-2-6-4-5-9-8(6)7/h1-5H
