16
metacyc CPD-1092  553.53889048 553.53889048 553.53889048 553.53889048 553.53889048 553.53889048 553.53889048 553.53889048 553.53889048 553.53889048 553.53889048 553.53889048 553.53889048 553.53889048 553.53889048
C          1.80127        0.19185       -1.06785
C          2.34828       -0.05679        0.12956
C          3.05616        0.93970        0.94611
C          2.69934        2.29462        0.95369
C          3.38544        3.20813        1.75828
C          4.42758        2.77442        2.57443
C          4.77871        1.42669        2.59264
C          4.09260        0.51336        1.78744
H          1.30265       -0.59954       -1.61860
H          1.84593        1.16758       -1.53938
H          2.29652       -1.06415        0.53694
H          1.87762        2.65479        0.34017
H          3.10166        4.25718        1.74891
H          4.96188        3.48551        3.19876
H          5.58722        1.08413        3.23309
H          4.38369       -0.53415        1.81569
16 16 16 16 16 16 16 16 16 16 16 16 16 16 16 16 16 16 16 16 16 16 16 16 16 16 16 16 16 16 16 16 16 16 16 16 16 16 16 16 16 16 16
C=CC1(C=CC=CC=1)
InChI=1S/C8H8/c1-2-8-6-4-3-5-7-8/h2-7H,1H2
