22
metacyc CPD-15522  279.89152512 279.89152512 279.89152512 279.89152512 279.89152512 279.89152512 279.89152512 279.89152512 279.89152512 279.89152512 279.89152512 279.89152512 279.89152512 279.89152512 279.89152512
C          1.01009       -0.01648        0.04701
C          2.53275       -0.03634        0.05521
O          3.00903        1.29901        0.20007
C          3.07809       -0.91275        1.18649
C          4.61252       -0.96578        1.18453
C          5.15691       -1.84258        2.31622
O          4.69082       -3.18060        2.16240
C          6.67933       -1.85116        2.33492
H          0.64156        0.63211       -0.75504
H          0.61672        0.38987        0.98543
H          0.59982       -1.02026       -0.09888
H          2.89191       -0.40914       -0.91030
H          2.66485        1.64807        1.04003
H          2.66955       -1.92547        1.08824
H          2.74497       -0.51517        2.15332
H          5.02058        0.04706        1.28391
H          4.94621       -1.36277        0.21765
H          4.78849       -1.47629        3.28072
H          5.04474       -3.52421        1.32417
H          7.08254       -2.25012        1.39752
H          7.04687       -2.50049        3.13681
H          7.08099       -0.84504        2.48838
22 22 22 22 22 22 22 22 22 22 22 22 22 22 22 22 22 22 22 22 22 22 22 22 22 22 22 22 22 22 22 22 22 22 22 22 22 22 22 22 22 22 22 22 22 22 22 22 22 22 22 22 22 22 22 22 22 22 22 22 22
CC(O)CCC(O)C
InChI=1S/C6H14O2/c1-5(7)3-4-6(2)8/h5-8H,3-4H2,1-2H3/t5-,6-/m0/s1
