20
metacyc CPD-19608  175.970810072 175.970810072 175.970810072 175.970810072 175.970810072 175.970810072 175.970810072 175.970810072 175.970810072 175.970810072 175.970810072 175.970810072 175.970810072 175.970810072 175.970810072
C          1.25193       -0.24002       -0.50511
C          2.61880       -0.00262        0.13795
C          3.07524        1.43813       -0.03332
C          2.32109        2.51136        0.46357
C          2.74301        3.82874        0.27122
C          3.92848        4.09041       -0.41278
C          4.69704        3.03377       -0.89706
C          4.27382        1.71679       -0.70611
C          2.65214       -0.42165        1.62403
O          1.56372       -0.31913        2.26276
O          3.76782       -0.86711        2.02820
H          1.26305        0.04336       -1.56360
H          0.45324        0.33141       -0.01949
H          0.97873       -1.29926       -0.44286
H          3.32562       -0.65966       -0.38821
H          1.40615        2.31456        1.02047
H          2.14790        4.64527        0.66876
H          4.25995        5.11402       -0.55481
H          5.63119        3.22859       -1.41411
H          4.88934        0.89835       -1.07195
20 20 20 20 20 20 20 20 20 20 20 20 20 20 20 20 20 20 20 20 20 20 20 20 20 20 20 20 20 20 20 20 20 20 20 20 20 20 20 20 20 20 20 20 20 20 20 20 20 20 20 20 20 20 20
CC(C1(C=CC=CC=1))C(=O)[O-]
InChI=1S/C9H10O2/c1-7(9(10)11)8-5-3-2-4-6-8/h2-7H,1H3,(H,10,11)/p-1/t7-/m0/s1
