26
metacyc CPD-148  799.0611568 799.0611568 799.0611568 799.0611568 799.0611568 799.0611568 799.0611568 799.0611568 799.0611568 799.0611568 799.0611568 799.0611568 799.0611568 799.0611568 799.0611568
C          0.94361       -0.04656       -0.04713
C          2.46378       -0.06794       -0.05258
C          3.00260       -1.42192       -0.51350
C          4.53194       -1.43941       -0.51946
C          5.07079       -2.79413       -0.98207
C          6.60013       -2.81090       -0.98938
C          7.13933       -4.16411       -1.45187
C          8.65954       -4.18384       -1.46052
H          0.57939        0.93040        0.28565
H          0.54302       -0.80739        0.63040
H          0.54515       -0.23444       -1.04928
H          2.83026        0.15506        0.95622
H          2.83217        0.72458       -0.71434
H          2.62870       -1.64249       -1.52078
H          2.62865       -2.21131        0.14990
H          4.90583       -1.21993        0.48804
H          4.90578       -0.64959       -1.18236
H          4.69616       -3.01406       -1.98920
H          4.69778       -3.58390       -0.31863
H          6.97483       -2.59090        0.01773
H          6.97308       -2.02082       -1.65251
H          6.77107       -4.38723       -2.46002
H          6.77314       -4.95728       -0.78964
H          9.05782       -3.42264       -2.13899
H          9.02417       -5.16042       -1.79399
H          9.05995       -3.99539       -0.45925
26 26 26 26 26 26 26 26 26 26 26 26 26 26 26 26 26 26 26 26 26 26 26 26 26 26 26 26 26 26 26 26 26 26 26 26 26 26 26 26 26 26 26 26 26 26 26 26 26 26 26 26 26 26 26 26 26 26 26 26 26 26 26 26 26 26 26 26 26 26 26 26 26
CCCCCCCC
InChI=1S/C8H18/c1-3-5-7-8-6-4-2/h3-8H2,1-2H3
