11
metacyc CPD-11706  9.93484524 9.93484524 9.93484524 9.93484524 9.93484524 9.93484524 9.93484524 9.93484524 9.93484524 9.93484524 9.93484524 9.93484524 9.93484524 9.93484524 9.93484524
C         -1.39125       -0.04399       -0.01410
C         -0.77539        1.14334        0.01276
C          0.69874        1.23535        0.05784
O          1.24862        2.33108        0.08078
O          1.40020        0.05761        0.07245
C          0.70978       -1.16416        0.04278
C         -0.62077       -1.25400        0.00080
H         -2.47357       -0.11494       -0.04716
H         -1.31600        2.08068        0.00299
H          1.39957       -1.99644        0.05835
H         -1.12725       -2.21268       -0.02186
11 11 11 11 11 11 11 11 11 11 11 11 11 11 11 11 11 11 11 11 11 11 11 11 11 11 11 11
C1(=CC(=O)OC=C1)
InChI=1S/C5H4O2/c6-5-3-1-2-4-7-5/h1-4H
