22
metacyc CPD-10732  399.16799296 399.16799296 399.16799296 399.16799296 399.16799296 399.16799296 399.16799296 399.16799296 399.16799296 399.16799296 399.16799296 399.16799296 399.16799296 399.16799296 399.16799296
C          1.09095       -0.21875       -0.03634
C          2.58079        0.01986       -0.03224
C          3.18729        1.22093       -0.13385
C          2.53256        2.50518       -0.26335
C          3.19171        3.66906       -0.37103
C          2.42032        4.93960       -0.51567
C          3.20549        6.21996       -0.62719
O          1.19171        4.94857       -0.54591
C          3.39913       -1.24654        0.05351
O          3.12040       -1.91846        1.27213
H          0.49595        0.68961       -0.14615
H          0.77898       -0.69333        0.89976
H          0.82042       -0.88072       -0.86590
H          4.27748        1.25132       -0.13123
H          1.44586        2.52462       -0.28407
H          4.27249        3.73218       -0.36209
H          4.28222        6.03971       -0.58196
H          2.92820        6.87981        0.19941
H          2.97304        6.70006       -1.58186
H          4.47628       -1.05541        0.01176
H          3.14962       -1.91631       -0.77607
H          3.30270       -1.28787        1.98898
22 22 22 22 22 22 22 22 22 22 22 22 22 22 22 22 22 22 22 22 22 22 22 22 22 22 22 22 22 22 22 22 22 22 22 22 22 22 22 22 22 22 22 22 22 22 22 22 22 22 22 22 22 22 22 22 22 22 22 22 22
CC(=CC=CC(C)=O)CO
InChI=1S/C8H12O2/c1-7(6-9)4-3-5-8(2)10/h3-5,9H,6H2,1-2H3/b5-3+,7-4+
