15
metacyc CPD-16510  478.9389236 478.9389236 478.9389236 478.9389236 478.9389236 478.9389236 478.9389236 478.9389236 478.9389236 478.9389236 478.9389236 478.9389236 478.9389236 478.9389236 478.9389236
C          0.95577       -0.09814       -0.05158
C          2.45093       -0.09005       -0.04181
C          3.20460        1.19573       -0.05169
C          4.63302        0.71104       -0.01936
C          4.55535       -0.80632       -0.03420
N          3.13430       -1.18822       -0.03000
H          0.56802        0.92358       -0.05395
H          0.58957       -0.61927        0.83697
H          0.60141       -0.61830       -0.94560
H          2.94825        1.79151        0.82839
H          2.97650        1.75995       -0.95968
H          5.15029        1.06849        0.87794
H          5.19934        1.08602       -0.87925
H          5.05314       -1.23029        0.84412
H          5.04265       -1.21372       -0.92639
15 15 15 15 15 15 15 15 15 15 15 15 15 15 15 15 15 15 15 15 15 15 15 15 15 15 15 15 15 15 15 15 15 15 15 15 15 15 15 15
CC1(CCC[N+]=1)
InChI=1S/C5H9N/c1-5-3-2-4-6-5/h2-4H2,1H3/p+1
