18
metacyc CPD-14698  626.4343376 626.4343376 626.4343376 626.4343376 626.4343376 626.4343376 626.4343376 626.4343376 626.4343376 626.4343376 626.4343376 626.4343376 626.4343376 626.4343376 626.4343376
C          1.12424       -0.25834        0.00009
C          2.62118        0.04436       -0.00862
N          3.36310       -1.17872        0.30102
C          3.02653        0.66580       -1.33265
C          3.02112        2.06450       -1.47079
C          3.32592        2.66306       -2.69420
C          3.64054        1.87342       -3.79749
C          3.65274        0.48604       -3.67877
C          3.34312       -0.11513       -2.45670
H          0.81301       -0.68292        0.96056
H          0.84664       -0.96660       -0.78985
H          0.54096        0.65661       -0.16057
H          2.84070        0.75494        0.79705
H          2.76743        2.69883       -0.62322
H          3.31067        3.74522       -2.78702
H          3.87195        2.33975       -4.75140
H          3.89645       -0.13130       -4.53935
H          3.34718       -1.20130       -2.39187
18 18 18 18 18 18 18 18 18 18 18 18 18 18 18 18 18 18 18 18 18 18 18 18 18 18 18 18 18 18 18 18 18 18 18 18 18 18 18 18 18 18 18 18 18 18 18 18 18
CC([N+])C1(C=CC=CC=1)
InChI=1S/C8H11N/c1-7(9)8-5-3-2-4-6-8/h2-7H,9H2,1H3/p+1/t7-/m0/s1
