24
metacyc CPD-13894  362.320986096 362.320986096 362.320986096 362.320986096 362.320986096 362.320986096 362.320986096 362.320986096 362.320986096 362.320986096 362.320986096 362.320986096 362.320986096 362.320986096 362.320986096
C          0.84688        2.34685        0.53550
C          2.35693        2.45623        0.66914
C          3.06380        1.23333        0.07761
C          4.59836        1.36188        0.10032
C          5.28031        0.17935       -0.58020
C          5.39791       -0.86497        0.53325
C          6.46264       -1.94888        0.15127
O          7.57699       -1.55656       -0.31713
O          6.05929       -3.15689        0.24204
N          5.57034       -0.07559        1.79781
C          5.21787        1.31974        1.50310
H          0.36250        3.20163        1.01911
H          0.47512        1.43320        1.00869
H          0.54568        2.33850       -0.51697
H          2.60437        2.56675        1.72857
H          2.69544        3.36532        0.16008
H          2.73973        1.11171       -0.96475
H          2.74161        0.33293        0.61296
H          4.86985        2.29439       -0.40905
H          6.26628        0.49182       -0.94579
H          4.72240       -0.20538       -1.44102
H          4.43664       -1.39527        0.60199
H          6.11956        1.94675        1.51263
H          4.55070        1.73646        2.26346
24 24 24 24 24 24 24 24 24 24 24 24 24 24 24 24 24 24 24 24 24 24 24 24 24 24 24 24 24 24 24 24 24 24 24 24 24 24 24 24 24 24 24 24 24 24 24 24 24 24 24 24 24 24 24 24 24 24 24 24 24 24 24 24 24 24 24
CCCC1(CC(C([O-])=O)[N+]C1)
InChI=1S/C8H15NO2/c1-2-3-6-4-7(8(10)11)9-5-6/h6-7,9H,2-5H2,1H3,(H,10,11)
