26
metacyc CPD-20366  312.86148696 312.86148696 312.86148696 312.86148696 312.86148696 312.86148696 312.86148696 312.86148696 312.86148696 312.86148696 312.86148696 312.86148696 312.86148696 312.86148696 312.86148696
C          2.63733        1.31748        0.57471
C          2.43209       -0.14295        0.17108
C          0.93303       -0.44893        0.10447
C          3.10343       -0.48180       -1.17625
C          4.63713       -0.33007       -1.18993
N          5.27376       -1.20936       -0.21640
C          5.43125       -2.54899       -0.47384
O          5.51335       -3.35741        0.44658
C          5.74131       -2.90516       -1.93015
N          5.30127       -1.94465       -2.92597
C          5.15566       -0.61361       -2.61305
O          5.21051        0.24040       -3.49271
H          2.13923        1.52734        1.52739
H          2.22478        1.99823       -0.17815
H          3.69657        1.55480        0.70587
H          2.85914       -0.78022        0.95439
H          0.42614        0.19420       -0.62273
H          0.46348       -0.28994        1.08156
H          0.75774       -1.49121       -0.18175
H          2.67314        0.15066       -1.96453
H          2.84103       -1.51429       -1.44590
H          4.94262        0.68899       -0.93399
H          5.12332       -1.00882        0.76456
H          5.26635       -3.85993       -2.17116
H          6.82683       -3.00343       -2.02942
H          5.59588       -2.09823       -3.88365
26 26 26 26 26 26 26 26 26 26 26 26 26 26 26 26 26 26 26 26 26 26 26 26 26 26 26 26 26 26 26 26 26 26 26 26 26 26 26 26 26 26 26 26 26 26 26 26 26 26 26 26 26 26 26 26 26 26 26 26 26 26 26 26 26 26 26 26 26 26 26 26 26
CC(C)CC1(NC(=O)CNC(=O)1)
InChI=1S/C8H14N2O2/c1-5(2)3-6-8(12)9-4-7(11)10-6/h5-6H,3-4H2,1-2H3,(H,9,12)(H,10,11)/t6-/m0/s1
