17
metacyc CPD-19526  182.09738688 182.09738688 182.09738688 182.09738688 182.09738688 182.09738688 182.09738688 182.09738688 182.09738688 182.09738688 182.09738688 182.09738688 182.09738688 182.09738688 182.09738688
C          0.90592        0.07024        0.06233
O          0.34015       -1.05478       -0.08076
O          0.36407        1.20991        0.18012
C          2.45597        0.04452        0.14294
N          2.95963        0.16948       -1.23636
C          3.04401        1.16611        1.00193
C          4.45363        0.69061        1.32254
C          4.30095       -0.80852        1.53525
C          3.03461       -1.22626        0.78088
H          2.46997        1.28523        1.92978
H          3.05331        2.13924        0.49773
H          4.86966        1.19263        2.20129
H          5.12534        0.88493        0.47834
H          4.18192       -1.02926        2.60262
H          5.18373       -1.35367        1.18578
H          2.32813       -1.68063        1.48657
H          3.26484       -1.99958        0.03777
17 17 17 17 17 17 17 17 17 17 17 17 17 17 17 17 17 17 17 17 17 17 17 17 17 17 17 17 17 17 17 17 17 17 17 17 17 17 17 17 17 17 17 17 17 17
C(=O)([O-])C1([N+])(CCCC1)
InChI=1S/C6H11NO2/c7-6(5(8)9)3-1-2-4-6/h1-4,7H2,(H,8,9)
