15
metacyc CPD-393  514.66091144 514.66091144 514.66091144 514.66091144 514.66091144 514.66091144 514.66091144 514.66091144 514.66091144 514.66091144 514.66091144 514.66091144 514.66091144 514.66091144 514.66091144
C          0.93620        0.06066        0.03724
N          2.40514        0.09370       -0.05527
C          3.05860        1.27708       -0.09989
C          4.44531        1.31456       -0.19472
C          5.15775        0.12325       -0.24377
C          4.47187       -1.08331       -0.19606
C          3.08535       -1.07510       -0.10122
H          0.54248        1.07587        0.12562
H          0.66741       -0.52048        0.92330
H          0.55664       -0.41147       -0.87271
H          2.46718        2.18734       -0.06052
H          4.96868        2.26782       -0.23127
H          6.24447        0.13529       -0.31959
H          5.01562       -2.02505       -0.23356
H          2.50792       -1.99453       -0.06237
15 15 15 15 15 15 15 15 15 15 15 15 15 15 15 15 15 15 15 15 15 15 15 15 15 15 15 15 15 15 15 15 15 15 15 15 15 15 15 15
C[N+]1(C=CC=CC=1)
InChI=1S/C6H8N/c1-7-5-3-2-4-6-7/h2-6H,1H3/q+1
