21
metacyc CPD-15412  91.640076736 91.640076736 91.640076736 91.640076736 91.640076736 91.640076736 91.640076736 91.640076736 91.640076736 91.640076736 91.640076736 91.640076736 91.640076736 91.640076736 91.640076736
C         -0.91660       -0.77263       -0.07819
N         -1.02911        0.68353        0.07814
C          0.17653        1.21370        0.06869
N          0.36520        2.44520        0.02230
N          1.14582        0.33172        0.11616
C          0.59673       -1.02613        0.08006
H          0.77016       -1.47304        1.06631
C          1.21083       -1.94256       -0.99636
O          0.49729       -3.19885       -0.91702
C          1.14392       -1.43610       -2.44212
C          1.67039        0.00096       -2.47041
O          2.73602        0.22547       -1.82165
O          0.81052        0.84711       -2.85982
N          1.98190       -2.26173       -3.31389
H         -1.30930       -1.05182       -1.05870
H         -1.49375       -1.27218        0.70424
H         -1.81837        1.30239       -0.01957
H          2.08590        0.63809       -0.18138
H          2.25226       -2.14643       -0.71266
H          0.76669       -3.71475       -1.70445
H          0.11826       -1.48750       -2.82281
21 21 21 21 21 21 21 21 21 21 21 21 21 21 21 21 21 21 21 21 21 21 21 21 21 21 21 21 21 21 21 21 21 21 21 21 21 21 21 21 21 21 21 21 21 21 21 21 21 21 21 21 21 21 21 21 21 21
C1(NC(=[N+])N[CH]1C(O)C(C(=O)[O-])[N+])
InChI=1S/C6H12N4O3/c7-3(5(12)13)4(11)2-1-9-6(8)10-2/h2-4,11H,1,7H2,(H,12,13)(H3,8,9,10)/p+1/t2-,3-,4-/m0/s1
