9
metacyc CPD-7406  423.44971144 423.44971144 423.44971144 423.44971144 423.44971144 423.44971144 423.44971144 423.44971144 423.44971144 423.44971144 423.44971144 423.44971144 423.44971144 423.44971144 423.44971144
C         -0.03688        0.86466        0.05204
C         -0.74138       -0.45842       -0.07700
C          0.76198       -0.40012       -0.07239
N         -1.45005       -0.78429       -1.31450
H         -0.06314        1.35870        1.01607
H         -0.05076        1.54163       -0.79454
H         -1.21988       -0.84850        0.81589
H          1.28837       -0.57852       -1.00312
H          1.27870       -0.76573        0.80707
9 9 9 9 9 9 9 9 9 9 9 9 9 9 9 9 9 9 9 9 9 9
C1(C(C1)[N+])
InChI=1S/C3H7N/c4-3-1-2-3/h3H,1-2,4H2/p+1
