10
metacyc CPD-60  78.134032688 78.134032688 78.134032688 78.134032688 78.134032688 78.134032688 78.134032688 78.134032688 78.134032688 78.134032688 78.134032688 78.134032688 78.134032688 78.134032688 78.134032688
C          0.88742        0.60955        0.02611
N         -0.35835        1.09597       -0.02576
C         -1.22794        0.05844        0.00815
C         -0.37979       -1.18718        0.09807
N          1.01884       -0.67084        0.09813
O         -2.44297        0.13338       -0.02842
H          1.71646        1.33036        0.00378
H         -0.64321        2.05954       -0.08607
H         -0.54650       -1.82491       -0.77358
H         -0.58466       -1.72006        1.02996
10 10 10 10 10 10 10 10 10 10 10 10 10 10 10 10 10 10 10 10 10 10 10 10 10
C1(NC(CN=1)=O)
InChI=1S/C3H4N2O/c6-3-1-4-2-5-3/h2H,1H2,(H,4,5,6)
