22
metacyc CPD-9951  560.00174792 560.00174792 560.00174792 560.00174792 560.00174792 560.00174792 560.00174792 560.00174792 560.00174792 560.00174792 560.00174792 560.00174792 560.00174792 560.00174792 560.00174792
C          0.81100        0.04396        0.18497
C          2.33590        0.07783        0.05847
N          2.76131        1.47418        0.15464
C          3.01068       -0.80726        1.13767
O          2.57733       -2.16440        0.95643
C          4.53094       -0.80156        1.18504
C          5.16923       -1.04487        2.41436
C          6.56211       -1.04680        2.51350
C          7.34014       -0.82003        1.38222
C          6.72501       -0.60655        0.15075
C          5.33134       -0.60664        0.04978
H          0.34085        0.64313       -0.60247
H          0.48130        0.43966        1.15255
H          0.42800       -0.97733        0.09140
H          2.58649       -0.30354       -0.93867
H          2.63613       -0.48566        2.11876
H          3.30223       -2.64922        0.52747
H          4.57892       -1.22983        3.31063
H          7.03874       -1.22182        3.47530
H          8.42469       -0.81034        1.45887
H          7.33247       -0.43194       -0.73362
H          4.88867       -0.43765       -0.92804
22 22 22 22 22 22 22 22 22 22 22 22 22 22 22 22 22 22 22 22 22 22 22 22 22 22 22 22 22 22 22 22 22 22 22 22 22 22 22 22 22 22 22 22 22 22 22 22 22 22 22 22 22 22 22 22 22 22 22 22 22
CC([N+])C(O)C1(C=CC=CC=1)
InChI=1S/C9H13NO/c1-7(10)9(11)8-5-3-2-4-6-8/h2-7,9,11H,10H2,1H3/p+1/t7-,9-/m0/s1
