17
metacyc CPD-16478  157.0112944 157.0112944 157.0112944 157.0112944 157.0112944 157.0112944 157.0112944 157.0112944 157.0112944 157.0112944 157.0112944 157.0112944 157.0112944 157.0112944 157.0112944
C         -1.25781        1.43607        0.00895
O         -1.35819        2.65571        0.02145
C          0.03448        0.72236        0.01640
C         -0.02772       -0.66731        0.00527
N          1.10257       -1.41271        0.00684
C          2.26557       -0.71549        0.00942
C          2.31129        0.67223        0.01606
N          1.19592        1.43311        0.02411
N         -1.22480       -1.39577       -0.03573
C         -2.33246       -0.73145       -0.06384
N         -3.52093       -1.37384       -0.14212
N         -2.37469        0.63114       -0.02032
H          3.17220       -1.31067        0.00426
H          3.25499        1.20772        0.01393
H         -3.46897       -2.37025        0.04862
H         -4.36454       -0.92124        0.18006
H         -3.25713        1.11617       -0.05980
17 17 17 17 17 17 17 17 17 17 17 17 17 17 17 17 17 17 17 17 17 17 17 17 17 17 17 17 17 17 17 17 17 17 17 17 17 17 17 17 17 17 17 17 17 17
C2(=O)(C1(C(=NC=CN=1)N=C(N)N2))
InChI=1S/C6H5N5O/c7-6-10-4-3(5(12)11-6)8-1-2-9-4/h1-2H,(H3,7,9,10,11,12)
