30
metacyc CPD-13489  1089.0046164 1089.0046164 1089.0046164 1089.0046164 1089.0046164 1089.0046164 1089.0046164 1089.0046164 1089.0046164 1089.0046164 1089.0046164 1089.0046164 1089.0046164 1089.0046164 1089.0046164
C          0.96974        4.89003        1.22501
N          0.50085        6.21708        0.83795
C          2.49406        4.83524        1.22870
C          2.98098        3.44148        1.64121
N          4.44058        3.39593        1.63633
C          4.92152        2.08059        2.04370
C          6.44540        2.07300        2.04298
C          7.01744        3.09052        3.02813
C          8.52502        3.06624        2.97278
N          9.05681        4.06242        3.90790
C         10.32694        4.29417        4.11891
N         10.62999        5.18416        4.94815
N         11.30725        3.66171        3.52359
H          0.56322        4.15237        0.52504
H          0.57767        4.65348        2.21989
H          2.89349        5.58866        1.92079
H          2.87916        5.08459        0.23090
H          2.55735        2.70194        0.94908
H          2.57759        3.20948        2.63565
H          4.57653        1.29527        1.35918
H          4.56553        1.80423        3.04439
H          6.81926        2.28487        1.03244
H          6.79669        1.06819        2.30798
H          6.67206        2.87039        4.04564
H          6.67472        4.10527        2.79204
H          8.88551        3.30828        1.96725
H          8.90806        2.08117        3.26026
H          8.40292        4.64341        4.42725
H         11.13671        2.94149        2.83819
H         12.25712        3.91657        3.75432
30 30 30 30 30 30 30 30 30 30 30 30 30 30 30 30 30 30 30 30 30 30 30 30 30 30 30 30 30 30 30 30 30 30 30 30 30 30 30 30 30 30 30 30 30 30 30 30 30 30 30 30 30 30 30 30 30 30 30 30 30 30 30 30 30 30 30 30 30 30 30 30 30 30 30 30 30 30 30 30 30 30 30 30 30
C([N+])CC[N+]CCCCNC(=[N+])N
InChI=1S/C8H21N5/c9-4-3-6-12-5-1-2-7-13-8(10)11/h12H,1-7,9H2,(H4,10,11,13)/p+3
