17
metacyc CPD-17526  214.18866688 214.18866688 214.18866688 214.18866688 214.18866688 214.18866688 214.18866688 214.18866688 214.18866688 214.18866688 214.18866688 214.18866688 214.18866688 214.18866688 214.18866688
C          1.42049       -0.81180       -0.60615
C          2.42351        0.16202       -0.01185
C          2.95712        1.11636       -1.03585
C          2.07573        2.11864       -1.73140
C          3.10985        2.60622       -0.73266
N          2.63102        3.18051        0.53876
C          4.32150        3.30311       -1.24149
O          4.15504        4.33537       -1.97209
O          5.46068        2.81162       -0.94377
H          1.12109       -1.55214        0.14309
H          1.84121       -1.34260       -1.46633
H          0.51841       -0.28911       -0.94084
H          3.26532       -0.40194        0.40675
H          1.94884        0.68230        0.82673
H          3.74510        0.65972       -1.63048
H          1.03203        2.18804       -1.45488
H          2.26827        2.33395       -2.77793
17 17 17 17 17 17 17 17 17 17 17 17 17 17 17 17 17 17 17 17 17 17 17 17 17 17 17 17 17 17 17 17 17 17 17 17 17 17 17 17 17 17 17 17 17 17
CCC1(CC([N+])(C([O-])=O)1)
InChI=1S/C6H11NO2/c1-2-4-3-6(4,7)5(8)9/h4H,2-3,7H2,1H3,(H,8,9)/t4-,6-/m0/s1
