12
metacyc CPD-15489  192.366609032 192.366609032 192.366609032 192.366609032 192.366609032 192.366609032 192.366609032 192.366609032 192.366609032 192.366609032 192.366609032 192.366609032 192.366609032 192.366609032 192.366609032
C          1.08289        0.94469        0.00597
C          1.34296       -0.36758       -0.01224
C          0.24467       -1.39436       -0.03314
O         -1.10306       -0.88810       -0.01240
C         -1.27137        0.46992       -0.00147
C         -0.28631        1.37404        0.00606
H          1.87229        1.68791        0.02080
H          2.36739       -0.72404       -0.01326
H          0.35454       -2.05637        0.83256
H          0.34532       -2.00958       -0.93390
H         -2.32175        0.72942        0.00210
H         -0.50158        2.43686        0.01463
12 12 12 12 12 12 12 12 12 12 12 12 12 12 12 12 12 12 12 12 12 12 12 12 12 12 12 12 12 12 12
C1(=CCOC=C1)
InChI=1S/C5H6O/c1-2-4-6-5-3-1/h1-4H,5H2
