15
metacyc CPD-10275  424.006961664 424.006961664 424.006961664 424.006961664 424.006961664 424.006961664 424.006961664 424.006961664 424.006961664 424.006961664 424.006961664 424.006961664 424.006961664 424.006961664 424.006961664
C          2.79892        0.11309       -1.42386
C          2.40182       -0.03892        0.04150
C          2.93195        1.09608        0.93317
C          2.42360        0.93985        2.36439
C          4.45195        1.09608        0.93317
N          5.71292        1.09608        0.93317
H          2.36983       -0.70414       -2.01420
H          3.88442        0.08063       -1.55516
H          2.42843        1.05847       -1.83349
H          2.76499       -1.00812        0.40541
H          1.30710       -0.06516        0.10114
H          2.58924        2.06090        0.53966
H          2.73391       -0.01752        2.79728
H          1.32983        0.98797        2.39556
H          2.81408        1.73594        3.00833
15 15 15 15 15 15 15 15 15 15 15 15 15 15 15 15 15 15 15 15 15 15 15 15 15 15 15 15 15 15 15 15 15 15 15 15 15 15 15 15
CCC(C)C#N
InChI=1S/C5H9N/c1-3-5(2)4-6/h5H,3H2,1-2H3/t5-/m0/s1
