30
metacyc CPD-20387  138.11461404 138.11461404 138.11461404 138.11461404 138.11461404 138.11461404 138.11461404 138.11461404 138.11461404 138.11461404 138.11461404 138.11461404 138.11461404 138.11461404 138.11461404
C          2.89522       -1.08832       -0.44652
C          2.49743        0.38408       -0.34421
C          0.97492        0.50096       -0.21087
C          3.19333        1.09716        0.83530
C          4.73359        1.11293        0.79042
C          5.21503        1.94990       -0.43905
O          5.48789        3.15974       -0.15417
O          5.32958        1.32842       -1.52928
N          5.25832        1.69479        2.04803
C          5.46810        0.98317        3.19666
C          6.05039        1.77991        4.35439
C          5.18174        1.54317        5.59757
O          5.16311        0.18556        6.05138
N          7.42686        1.33395        4.57257
O          5.16449       -0.20792        3.32077
H          2.36168       -1.57659       -1.26926
H          2.66183       -1.62801        0.47708
H          3.96404       -1.20128       -0.64961
H          2.77325        0.87843       -1.28271
H          0.63243        0.18995        0.78162
H          0.46536       -0.12165       -0.95444
H          0.65376        1.53558       -0.37186
H          2.86999        0.62081        1.77118
H          2.82563        2.13176        0.88779
H          5.13410        0.09803        0.72270
H          5.64553        2.62717        1.89514
H          6.05545        2.84796        4.11602
H          4.14499        1.83189        5.39150
H          5.53599        2.15576        6.43394
H          5.09600       -0.37654        5.24714
30 30 30 30 30 30 30 30 30 30 30 30 30 30 30 30 30 30 30 30 30 30 30 30 30 30 30 30 30 30 30 30 30 30 30 30 30 30 30 30 30 30 30 30 30 30 30 30 30 30 30 30 30 30 30 30 30 30 30 30 30 30 30 30 30 30 30 30 30 30 30 30 30 30 30 30 30 30 30 30 30 30 30 30 30
CC(C)CC(C([O-])=O)NC(C(CO)[N+])=O
InChI=1S/C9H18N2O4/c1-5(2)3-7(9(14)15)11-8(13)6(10)4-12/h5-7,12H,3-4,10H2,1-2H3,(H,11,13)(H,14,15)/t6-,7-/m0/s1
