18
metacyc CPD-303  660.96162608 660.96162608 660.96162608 660.96162608 660.96162608 660.96162608 660.96162608 660.96162608 660.96162608 660.96162608 660.96162608 660.96162608 660.96162608 660.96162608 660.96162608
C          0.73856        1.26117       -0.22043
C         -0.71541        1.26875        0.24393
C         -1.44997       -0.00238       -0.18490
C         -0.72987       -1.28344        0.25048
C          0.73663       -1.26626       -0.19485
C          1.47440        0.00324        0.23332
N         -0.80995       -1.43344        1.70317
H          1.25332        2.14867        0.16457
H          0.76996        1.32473       -1.31521
H         -1.22760        2.14441       -0.17097
H         -0.75118        1.37051        1.33524
H         -1.54198       -0.00423       -1.27891
H         -2.47333        0.01479        0.21016
H         -1.23097       -2.14682       -0.20099
H          0.77345       -1.34309       -1.28942
H          1.26505       -2.14578        0.19350
H          2.48568       -0.00171       -0.18929
H          1.58869        0.01876        1.32386
18 18 18 18 18 18 18 18 18 18 18 18 18 18 18 18 18 18 18 18 18 18 18 18 18 18 18 18 18 18 18 18 18 18 18 18 18 18 18 18 18 18 18 18 18 18 18 18 18
C1(CCC(CC1)[N+])
InChI=1S/C6H13N/c7-6-4-2-1-3-5-6/h6H,1-5,7H2/p+1
