27
metacyc CPD-11964  2.125183304 2.125183304 2.125183304 2.125183304 2.125183304 2.125183304 2.125183304 2.125183304 2.125183304 2.125183304 2.125183304 2.125183304 2.125183304 2.125183304 2.125183304
C          2.82017       -2.60869       -1.55768
N          2.45033       -3.71092       -2.43748
C          4.32596       -2.37626       -1.61551
C          4.77393       -1.16150       -0.79833
C          4.50115       -1.23784        0.70280
N          5.08977       -2.37856        1.38367
O          4.20637       -3.45771        1.53706
C          6.45344       -2.55922        1.51784
O          7.26291       -1.77455        1.01472
C          6.89526       -3.80427        2.27323
C          8.25517       -3.60222        2.93625
C          8.23396       -2.54934        4.04856
O          7.10178       -2.06576        4.33979
O          9.35806       -2.33316        4.58257
H          2.49495       -2.84610       -0.54169
H          2.28614       -1.70812       -1.87699
H          4.62817       -2.20746       -2.65667
H          4.86120       -3.27149       -1.27743
H          4.28246       -0.26204       -1.19022
H          5.84858       -1.01615       -0.97012
H          3.42344       -1.23283        0.91088
H          4.92516       -0.34320        1.17265
H          3.78627       -3.21220        2.38405
H          6.95566       -4.62721        1.55172
H          6.14840       -4.07761        3.02899
H          9.00703       -3.31025        2.19291
H          8.58564       -4.54822        3.38098
27 27 27 27 27 27 27 27 27 27 27 27 27 27 27 27 27 27 27 27 27 27 27 27 27 27 27 27 27 27 27 27 27 27 27 27 27 27 27 27 27 27 27 27 27 27 27 27 27 27 27 27 27 27 27 27 27 27 27 27 27 27 27 27 27 27 27 27 27 27 27 27 27 27 27 27
C([N+])CCCN(O)C(=O)CCC(=O)[O-]
InChI=1S/C8H16N2O4/c9-5-1-2-6-10(14)7(11)3-4-8(12)13/h14H,1-6,9H2,(H,12,13)
