15
metacyc CPD-9757  205.68581656 205.68581656 205.68581656 205.68581656 205.68581656 205.68581656 205.68581656 205.68581656 205.68581656 205.68581656 205.68581656 205.68581656 205.68581656 205.68581656 205.68581656
C          1.18105       -0.02826       -0.08414
C          2.49525       -0.05256       -0.08394
C          3.64413       -0.86232       -0.08089
C          3.67842        0.71863       -0.08292
C          4.12114        1.48051        1.14022
N          5.53168        1.15329        1.39717
C          4.04221        3.02910        1.00274
O          4.27320        3.51352       -0.14651
O          3.72481        3.64652        2.06517
H          0.60488       -0.94481       -0.08107
H          0.65188        0.91782       -0.07938
H          3.90621       -1.36321       -1.00241
H          3.89133       -1.37509        0.83744
H          3.95857        1.20397       -1.01083
H          3.53309        1.17772        2.01580
15 15 15 15 15 15 15 15 15 15 15 15 15 15 15 15 15 15 15 15 15 15 15 15 15 15 15 15 15 15 15 15 15 15 15 15 15 15 15 15
C=C1(CC1C([N+])C(=O)[O-])
InChI=1S/C6H9NO2/c1-3-2-4(3)5(7)6(8)9/h4-5H,1-2,7H2,(H,8,9)/t4?,5-/m0/s1
