18
metacyc CPD-19082  346.32409388 346.32409388 346.32409388 346.32409388 346.32409388 346.32409388 346.32409388 346.32409388 346.32409388 346.32409388 346.32409388 346.32409388 346.32409388 346.32409388 346.32409388
C          0.95456       -0.06514       -0.10432
C          2.47528       -0.05920       -0.09113
C          3.02075        0.22963        1.31005
C          4.55252        0.22411        1.34701
O          5.06857        1.23025        0.47964
C          5.07720        0.47789        2.75372
H          0.58504       -0.27019       -1.11394
H          0.55617        0.90398        0.21259
H          0.55911       -0.83539        0.56549
H          2.83296        0.69581       -0.80033
H          2.84205       -1.03185       -0.43920
H          2.63455       -0.51756        2.01405
H          2.64873        1.20977        1.63441
H          4.93036       -0.74065        0.99115
H          4.71848        2.08792        0.77606
H          4.75043        1.45546        3.12556
H          6.17253        0.49189        2.75546
H          4.73663       -0.29347        3.45089
18 18 18 18 18 18 18 18 18 18 18 18 18 18 18 18 18 18 18 18 18 18 18 18 18 18 18 18 18 18 18 18 18 18 18 18 18 18 18 18 18 18 18 18 18 18 18 18 18
CCCC(O)C
InChI=1S/C5H12O/c1-3-4-5(2)6/h5-6H,3-4H2,1-2H3/t5-/m0/s1
