20
metacyc CPD-575  210.49812784 210.49812784 210.49812784 210.49812784 210.49812784 210.49812784 210.49812784 210.49812784 210.49812784 210.49812784 210.49812784 210.49812784 210.49812784 210.49812784 210.49812784
C          1.01108        0.09204        0.16200
O          0.34864       -0.97797        0.06295
O          0.60003        1.25285        0.45251
C          2.53898       -0.02363       -0.05726
C          3.04771       -1.41699       -0.44532
C          2.73954       -1.78552       -1.89684
C          3.21856       -0.71500       -2.87089
C          2.68675        0.66529       -2.50110
C          3.03160        1.03023       -1.05791
H          2.97325        0.21791        0.92341
H          2.63163       -2.18136        0.22121
H          4.13622       -1.44488       -0.30288
H          1.66137       -1.93509       -2.02473
H          3.21781       -2.74146       -2.13956
H          2.90010       -0.97299       -3.88710
H          4.31552       -0.69307       -2.87660
H          1.59924        0.68945       -2.63964
H          3.11053        1.41435       -3.17913
H          2.62243        2.02103       -0.83005
H          4.12198        1.12146       -0.96768
20 20 20 20 20 20 20 20 20 20 20 20 20 20 20 20 20 20 20 20 20 20 20 20 20 20 20 20 20 20 20 20 20 20 20 20 20 20 20 20 20 20 20 20 20 20 20 20 20 20 20 20 20 20 20
C(=O)([O-])C1(CCCCC1)
InChI=1S/C7H12O2/c8-7(9)6-4-2-1-3-5-6/h6H,1-5H2,(H,8,9)/p-1
