24
metacyc CPD-12224  510.22076696 510.22076696 510.22076696 510.22076696 510.22076696 510.22076696 510.22076696 510.22076696 510.22076696 510.22076696 510.22076696 510.22076696 510.22076696 510.22076696 510.22076696
C          0.93805       -0.01299       -0.05818
C          2.47859       -0.03978       -0.05613
C          2.91770       -0.04769        1.41966
C          3.11835       -1.15892       -0.92109
C          2.61823       -0.85998       -2.35760
C          2.67560        0.65304       -2.29672
C          3.12399        1.07948       -0.90498
C          4.62542        0.74358       -0.89381
C          4.62842       -0.80286       -0.88178
O          2.44412        1.40710       -3.22840
H          0.53864       -0.90676        0.43437
H          0.48911        0.03369       -1.05371
H          0.57073        0.86413        0.48744
H          2.52120       -0.93196        1.93106
H          2.53512        0.83968        1.93732
H          3.99950       -0.05433        1.57126
H          2.90934       -2.18191       -0.59951
H          1.59377       -1.19965       -2.52340
H          3.28744       -1.24945       -3.12837
H          2.85158        2.10418       -0.65300
H          5.12383        1.14100       -0.00374
H          5.14833        1.13129       -1.77547
H          5.10716       -1.18434        0.02589
H          5.17666       -1.21255       -1.73697
24 24 24 24 24 24 24 24 24 24 24 24 24 24 24 24 24 24 24 24 24 24 24 24 24 24 24 24 24 24 24 24 24 24 24 24 24 24 24 24 24 24 24 24 24 24 24 24 24 24 24 24 24 24 24 24 24 24 24 24 24 24 24 24 24 24 24
CC1(C)(C2(CC(C1CC2)=O))
InChI=1S/C9H14O/c1-9(2)6-3-4-7(9)8(10)5-6/h6-7H,3-5H2,1-2H3
