9
metacyc CPD-15491  93.112761056 93.112761056 93.112761056 93.112761056 93.112761056 93.112761056 93.112761056 93.112761056 93.112761056 93.112761056 93.112761056 93.112761056 93.112761056 93.112761056 93.112761056
C         -1.20226       -0.00236       -0.00029
C         -0.36911        1.14253       -0.00092
C          0.92428        0.67440        0.00301
O          0.93726       -0.68374        0.00601
C         -0.35905       -1.08908        0.00398
H         -2.28257       -0.03374       -0.00264
H         -0.67148        2.18013       -0.00386
H          1.89481        1.15062        0.00415
H         -0.51371       -2.15903        0.00597
9 9 9 9 9 9 9 9 9 9 9 9 9 9 9 9 9 9 9 9 9 9
C1(C=COC=1)
InChI=1S/C4H4O/c1-2-4-5-3-1/h1-4H
