9
metacyc CPD-8860  246.126322952 246.126322952 246.126322952 246.126322952 246.126322952 246.126322952 246.126322952 246.126322952 246.126322952 246.126322952 246.126322952 246.126322952 246.126322952 246.126322952 246.126322952
C          1.08689        0.02049        0.01134
C          2.60410        0.05069        0.01893
C          3.11076        1.43842        0.37657
N          3.53107        2.58965        0.67326
H          0.72711       -0.98044       -0.24659
H          0.68176        0.72811       -0.72005
H          0.68196        0.28643        0.99372
H          2.99077       -0.22725       -0.96726
H          2.99097       -0.66932        0.74781
9 9 9 9 9 9 9 9 9 9 9 9 9 9 9 9 9 9 9 9 9 9
CCC#N
InChI=1S/C3H5N/c1-2-3-4/h2H2,1H3
