17
metacyc CPD-18956  254.0575008 254.0575008 254.0575008 254.0575008 254.0575008 254.0575008 254.0575008 254.0575008 254.0575008 254.0575008 254.0575008 254.0575008 254.0575008 254.0575008 254.0575008
C          1.00449       -0.01421       -0.12461
C          2.52456        0.01141       -0.10502
C          3.04511        1.21260        0.67773
C          4.57021        1.23543        0.73524
O          5.01545        2.38614        1.47096
C          5.03568        2.24454        2.81975
H          5.38227        3.18656        3.27200
O          4.72031        1.25296        3.45689
H          0.64568       -0.88093       -0.68792
H          0.60361        0.88890       -0.59585
H          0.60144       -0.07869        0.89137
H          2.89987        0.04422       -1.13438
H          2.89367       -0.91695        0.34655
H          2.63565        1.19994        1.69486
H          2.68811        2.14587        0.22417
H          4.98133        1.32546       -0.27657
H          4.97836        0.31447        1.16845
17 17 17 17 17 17 17 17 17 17 17 17 17 17 17 17 17 17 17 17 17 17 17 17 17 17 17 17 17 17 17 17 17 17 17 17 17 17 17 17 17 17 17 17 17 17
CCCCO[CH]=O
InChI=1S/C5H10O2/c1-2-3-4-7-5-6/h5H,2-4H2,1H3
