20
metacyc CPD-18935  341.84330184 341.84330184 341.84330184 341.84330184 341.84330184 341.84330184 341.84330184 341.84330184 341.84330184 341.84330184 341.84330184 341.84330184 341.84330184 341.84330184 341.84330184
C          1.05849        0.03582       -0.08739
N          0.28687        0.84973        0.70577
C         -1.02910        0.88168        0.71439
N         -1.83898        0.14320       -0.00922
N         -1.57041        1.68316        1.51560
C          2.39462        0.02531        0.00237
C          3.23045       -0.84177       -0.91067
C          4.04258       -0.03133       -1.92120
N          4.78729       -0.95505       -2.78447
C          3.13844        0.83141       -2.83666
O          1.94155        0.42422       -2.98275
O          3.65432        1.91350       -3.23589
H          0.57660       -0.60147       -0.82561
H          0.75246        1.50241        1.32624
H         -1.49478       -0.49502       -0.71156
H         -2.83592        0.26191        0.10400
H          2.92538        0.67976        0.68449
H          2.58978       -1.56657       -1.43346
H          3.90125       -1.43898       -0.28063
H          4.75701        0.61372       -1.39607
20 20 20 20 20 20 20 20 20 20 20 20 20 20 20 20 20 20 20 20 20 20 20 20 20 20 20 20 20 20 20 20 20 20 20 20 20 20 20 20 20 20 20 20 20 20 20 20 20 20 20 20 20 20 20
C(NC(N)=[N+])=CCC([N+])C(=O)[O-]
InChI=1S/C6H12N4O2/c7-4(5(11)12)2-1-3-10-6(8)9/h1,3-4H,2,7H2,(H,11,12)(H4,8,9,10)/p+1/b3-1+/t4-/m0/s1
