19
metacyc CPD-16769  395.3884184 395.3884184 395.3884184 395.3884184 395.3884184 395.3884184 395.3884184 395.3884184 395.3884184 395.3884184 395.3884184 395.3884184 395.3884184 395.3884184 395.3884184
C          3.17103        1.49012        0.19310
C          2.61639        0.09457        0.07036
O          1.56849       -0.12405       -0.53482
C          3.36954       -1.03446        0.69251
C          4.56145       -0.83228        1.39572
C          5.23595       -1.91995        1.96057
C          4.76149       -3.22342        1.79727
N          5.37880       -4.28293        2.46831
C          3.53823       -3.41254        1.15091
C          2.85567       -2.33135        0.58201
H          2.49156        2.19412       -0.29650
H          4.14311        1.55365       -0.30330
H          3.25092        1.77527        1.24542
H          4.98330        0.15783        1.53319
H          6.14280       -1.73824        2.53214
H          6.37157       -4.14449        2.63171
H          5.18183       -5.19421        2.06611
H          3.10258       -4.40546        1.08067
H          1.91448       -2.50847        0.06461
19 19 19 19 19 19 19 19 19 19 19 19 19 19 19 19 19 19 19 19 19 19 19 19 19 19 19 19 19 19 19 19 19 19 19 19 19 19 19 19 19 19 19 19 19 19 19 19 19 19 19 19
CC(=O)C1(C=CC(N)=CC=1)
InChI=1S/C8H9NO/c1-6(10)7-2-4-8(9)5-3-7/h2-5H,9H2,1H3
