20
metacyc CPD-17712  118.481838376 118.481838376 118.481838376 118.481838376 118.481838376 118.481838376 118.481838376 118.481838376 118.481838376 118.481838376 118.481838376 118.481838376 118.481838376 118.481838376 118.481838376
C         -2.53238       -0.26851       -0.30571
C         -2.25659        1.20286        0.06023
O         -3.14470        2.04748        0.12657
N         -0.94431        1.53607        0.30359
C          0.12977        0.75985       -0.30359
C          1.51547        1.08872        0.22172
O          1.76320        2.18472        0.72176
N          2.48267        0.15365       -0.03815
C          2.13505       -1.08851       -0.12906
N          3.08325       -2.00841       -0.41332
N          0.86296       -1.55696        0.00939
C         -0.11671       -0.71524       -0.04972
N         -1.41964       -1.13890        0.05935
H         -2.70164       -0.32701       -1.38545
H         -3.43414       -0.59390        0.22075
H         -0.76947        2.52052        0.47813
H          0.11093        0.93646       -1.38549
H          3.91443       -1.62050       -0.83910
H          2.72598       -2.84962       -0.84580
H         -1.58183       -2.13845        0.09814
20 20 20 20 20 20 20 20 20 20 20 20 20 20 20 20 20 20 20 20 20 20 20 20 20 20 20 20 20 20 20 20 20 20 20 20 20 20 20 20 20 20 20 20 20 20 20 20 20 20 20 20 20 20 20
C1(C(=O)NC2(C(=O)N=C(N)N=C(N1)2))
InChI=1S/C6H7N5O2/c7-6-10-4-3(5(13)11-6)9-2(12)1-8-4/h3H,1H2,(H,9,12)(H3,7,8,10,11,13)
