25
metacyc CPD-16811  455.599174144 455.599174144 455.599174144 455.599174144 455.599174144 455.599174144 455.599174144 455.599174144 455.599174144 455.599174144 455.599174144 455.599174144 455.599174144 455.599174144 455.599174144
C          0.87961       -0.02583        0.10885
N          0.34308       -1.38913        0.10220
C          0.03432       -2.10832       -0.95283
N          0.18955       -1.74269       -2.20047
N         -0.45362       -3.24498       -0.74689
C          2.40352       -0.07428        0.10125
C          2.97288        1.34720        0.04339
C          4.50842        1.43080       -0.02420
N          4.95642        0.72543       -1.22503
C          4.94869        2.89713       -0.13339
N          6.27664        3.19583       -0.01002
O          7.23134        2.16952       -0.09290
O          4.13494        3.81410       -0.27056
H          0.51192        0.47609        1.01012
H          0.49184        0.52232       -0.75641
H          0.15182       -1.84710        0.98900
H          0.58719       -0.85612       -2.46964
H         -0.09265       -2.38869       -2.92845
H          2.73941       -0.66169       -0.76034
H          2.76649       -0.59083        0.99791
H          2.62481        1.90464        0.92329
H          2.54136        1.85868       -0.82878
H          4.95135        0.98583        0.87352
H          6.55867        4.11639       -0.34025
H          7.67843        2.22400        0.77364
25 25 25 25 25 25 25 25 25 25 25 25 25 25 25 25 25 25 25 25 25 25 25 25 25 25 25 25 25 25 25 25 25 25 25 25 25 25 25 25 25 25 25 25 25 25 25 25 25 25 25 25 25 25 25 25 25 25 25 25 25 25 25 25 25 25 25 25 25 25
C(NC(N)=[N+])CCC([N+])C(NO)=O
InChI=1S/C6H15N5O2/c7-4(5(12)11-13)2-1-3-10-6(8)9/h4,13H,1-3,7H2,(H,11,12)(H4,8,9,10)/p+2/t4-/m0/s1
