17
metacyc CPD-17725  86.17747144 86.17747144 86.17747144 86.17747144 86.17747144 86.17747144 86.17747144 86.17747144 86.17747144 86.17747144 86.17747144 86.17747144 86.17747144 86.17747144 86.17747144
C          1.04929        0.05748       -0.03636
C          2.56491        0.09747       -0.07763
C          3.13709       -1.07430       -0.81206
N          4.07123       -0.85680       -1.68250
C          4.36353        0.61517       -1.55809
C          5.61120        0.89737       -0.65579
O          5.51979        0.53240        0.55478
O          6.55106        1.52472       -1.22909
C          3.11069        1.22237       -0.93834
H          0.70306       -0.79235        0.56161
H          0.62047       -0.05653       -1.03828
H          0.64816        0.97429        0.40721
H          2.96936        0.10867        0.93908
H          2.76684       -2.08806       -0.60078
H          4.53070        1.02927       -2.55890
H          2.40225        1.48600       -1.73398
H          3.30535        2.12854       -0.35533
17 17 17 17 17 17 17 17 17 17 17 17 17 17 17 17 17 17 17 17 17 17 17 17 17 17 17 17 17 17 17 17 17 17 17 17 17 17 17 17 17 17 17 17 17 17
CC1(C=NC(C(=O)[O-])C1)
InChI=1S/C6H9NO2/c1-4-2-5(6(8)9)7-3-4/h3-5H,2H2,1H3,(H,8,9)/p-1/t4-,5+/m1/s1
