22
metacyc CPD-6181  178.71776088 178.71776088 178.71776088 178.71776088 178.71776088 178.71776088 178.71776088 178.71776088 178.71776088 178.71776088 178.71776088 178.71776088 178.71776088 178.71776088 178.71776088
C          0.99747        0.04566       -0.11252
N          2.51318        0.04047       -0.05342
C          3.02187       -1.05584        0.93211
C          2.52864       -0.84576        2.34361
C          3.09850       -1.97021        3.19582
O          3.82519       -2.80193        2.59154
O          2.75502       -1.90975        4.40483
C          3.06430       -0.31029       -1.42915
C          3.03141        1.40642        0.35525
H          0.65223       -0.96841       -0.33364
H          0.68764        0.73325       -0.90574
H          0.59950        0.39394        0.84369
H          4.11743       -1.02273        0.87452
H          2.67403       -2.01189        0.52019
H          1.43760       -0.89168        2.41077
H          2.87072        0.10409        2.76461
H          2.68790       -1.29683       -1.71612
H          4.15728       -0.31536       -1.37784
H          2.72302        0.44604       -2.14266
H          2.56644        1.70247        1.29863
H          2.75833        2.12391       -0.42487
H          4.11926        1.35269        0.45613
22 22 22 22 22 22 22 22 22 22 22 22 22 22 22 22 22 22 22 22 22 22 22 22 22 22 22 22 22 22 22 22 22 22 22 22 22 22 22 22 22 22 22 22 22 22 22 22 22 22 22 22 22 22 22 22 22 22 22 22 22
C[N+](CCC([O-])=O)(C)C
InChI=1S/C6H13NO2/c1-7(2,3)5-4-6(8)9/h4-5H2,1-3H3
