16
metacyc CPD-15922  217.1772144 217.1772144 217.1772144 217.1772144 217.1772144 217.1772144 217.1772144 217.1772144 217.1772144 217.1772144 217.1772144 217.1772144 217.1772144 217.1772144 217.1772144
C         -2.30606       -0.09338       -0.03350
N         -1.59751        1.07473        0.03945
C         -0.26757        0.75304        0.03366
C          0.91221        1.46926        0.10703
N          0.97322        2.86470        0.20129
O          2.20850        3.48660       -0.00628
N          2.06104        0.75253        0.10862
C          1.98423       -0.59171        0.01911
N          0.88653       -1.35103       -0.06357
C         -0.24510       -0.62744       -0.04576
N         -1.51386       -1.13951       -0.09420
H         -3.38828       -0.11845       -0.03473
H         -1.99246        2.00170        0.10985
H          0.20471        3.34732       -0.25324
H          2.84989        2.78683        0.24521
H          2.93185       -1.12225        0.01331
16 16 16 16 16 16 16 16 16 16 16 16 16 16 16 16 16 16 16 16 16 16 16 16 16 16 16 16 16 16 16 16 16 16 16 16 16 16 16 16 16 16 16
C1(NC2(C(NO)=NC=NC(N=1)=2))
InChI=1S/C5H5N5O/c11-10-5-3-4(7-1-6-3)8-2-9-5/h1-2,11H,(H2,6,7,8,9,10)
