17
metacyc CPD-9016  52.123113032 52.123113032 52.123113032 52.123113032 52.123113032 52.123113032 52.123113032 52.123113032 52.123113032 52.123113032 52.123113032 52.123113032 52.123113032 52.123113032 52.123113032
C          2.05892        0.66410       -0.01893
N          0.77913        1.34197        0.05623
C         -0.33651        0.62406        0.02441
N         -1.59583        1.11581        0.01432
C         -2.32713        0.03170       -0.00600
N         -1.59286       -1.12197       -0.01299
C         -0.28137       -0.74010        0.00367
C          0.96550       -1.41041        0.00260
N          2.09818       -0.81082       -0.00486
O          0.91377       -2.75628        0.00819
O         -3.64148        0.05019       -0.01709
H          2.67158        1.01522        0.81912
H          2.56701        0.99766       -0.93122
H          0.76704        2.35218       -0.00174
H         -1.98857       -2.04916       -0.02916
H          0.01941       -3.11445        0.02496
H         -3.82262        1.00875       -0.00365
17 17 17 17 17 17 17 17 17 17 17 17 17 17 17 17 17 17 17 17 17 17 17 17 17 17 17 17 17 17 17 17 17 17 17 17 17 17 17 17 17 17 17 17 17 17
C1(NC2(N=C(NC(C(=N1)O)=2)O))
InChI=1S/C5H6N4O2/c10-4-2-3(6-1-7-4)9-5(11)8-2/h6H,1H2,(H,7,10)(H2,8,9,11)
