21
metacyc CPD-13971  152.81486792 152.81486792 152.81486792 152.81486792 152.81486792 152.81486792 152.81486792 152.81486792 152.81486792 152.81486792 152.81486792 152.81486792 152.81486792 152.81486792 152.81486792
C          0.89650        0.10563        0.17500
C          2.41235       -0.00446       -0.02004
C          2.90546       -1.43721       -0.30503
O          2.38485       -2.34240        0.67138
C          2.55929       -1.85021       -1.74736
N          3.15401       -3.14633       -2.07041
C          3.05400       -0.80084       -2.73324
C          2.51928        0.57073       -2.34790
O          3.06792        1.55079       -3.20861
O          2.87608        0.91355       -1.01790
H          0.56357       -0.48567        1.03314
H          0.34090       -0.23415       -0.70347
H          0.61354        1.14953        0.34375
H          2.86419        0.31930        0.92580
H          3.99835       -1.44195       -0.19473
H          1.60584       -2.79339        0.30489
H          1.47420       -1.96912       -1.84591
H          2.75381       -1.04503       -3.75967
H          4.15313       -0.77417       -2.73473
H          1.43224        0.61716       -2.46580
H          4.01856        1.56688       -3.00779
21 21 21 21 21 21 21 21 21 21 21 21 21 21 21 21 21 21 21 21 21 21 21 21 21 21 21 21 21 21 21 21 21 21 21 21 21 21 21 21 21 21 21 21 21 21 21 21 21 21 21 21 21 21 21 21 21 21
CC1(C(O)C([N+])CC(O)O1)
InChI=1S/C6H13NO3/c1-3-6(9)4(7)2-5(8)10-3/h3-6,8-9H,2,7H2,1H3/p+1/t3-,4-,5+,6+/m0/s1
