15
metacyc CPD-17693  400.18198536 400.18198536 400.18198536 400.18198536 400.18198536 400.18198536 400.18198536 400.18198536 400.18198536 400.18198536 400.18198536 400.18198536 400.18198536 400.18198536 400.18198536
C          0.94631        0.06303       -0.05654
C          2.25017        0.06174       -0.05771
C          3.77017        0.06023       -0.05907
C          4.29278        1.00761       -1.13961
C          5.81594        1.07058       -1.17227
C          6.51420       -0.24295       -1.53287
O          5.87065       -1.02671       -2.28175
O          7.66515       -0.37615       -1.02880
H         -0.11802        0.05923       -0.06466
H          4.11381       -0.96550       -0.22740
H          4.12507        0.37437        0.92892
H          3.90530        2.01819       -0.95536
H          3.90452        0.70596       -2.12069
H          6.18702        1.42349       -0.20227
H          6.12410        1.81075       -1.92095
15 15 15 15 15 15 15 15 15 15 15 15 15 15 15 15 15 15 15 15 15 15 15 15 15 15 15 15 15 15 15 15 15 15 15 15 15 15 15 15
C#CCCCC([O-])=O
InChI=1S/C6H8O2/c1-2-3-4-5-6(7)8/h1H,3-5H2,(H,7,8)/p-1
