13
metacyc CPD-19010  263.67137048 263.67137048 263.67137048 263.67137048 263.67137048 263.67137048 263.67137048 263.67137048 263.67137048 263.67137048 263.67137048 263.67137048 263.67137048 263.67137048 263.67137048
C          0.78356       -0.03398       -0.17636
C          2.25578        0.03680        0.07961
C          2.70593        0.00563        1.50467
O          3.04076       -0.78093       -0.79682
C          3.15877        0.64072       -0.96993
H          0.31892       -0.81107        0.43808
H          0.56373       -0.26204       -1.22505
H          0.31328        0.92380        0.06726
H          2.25989       -0.84383        2.03260
H          2.40492        0.92486        2.01696
H          3.79433       -0.08611        1.58643
H          2.71370        1.07489       -1.85672
H          4.08456        1.10761       -0.65935
13 13 13 13 13 13 13 13 13 13 13 13 13 13 13 13 13 13 13 13 13 13 13 13 13 13 13 13 13 13 13 13 13 13
CC1(C)(OC1)
InChI=1S/C4H8O/c1-4(2)3-5-4/h3H2,1-2H3
