23
metacyc CPD-9368  473.68034688 473.68034688 473.68034688 473.68034688 473.68034688 473.68034688 473.68034688 473.68034688 473.68034688 473.68034688 473.68034688 473.68034688 473.68034688 473.68034688 473.68034688
C          0.94684       -0.00405       -0.13141
C          2.47548        0.05086       -0.13799
N          2.98862        0.63580       -1.36925
C          2.75119       -0.02705       -2.56172
N          2.62132       -1.35059       -2.58881
C          2.34986       -1.88181       -3.77168
N          2.18558       -3.25130       -3.82958
N          2.24134       -1.20791       -4.90348
C          2.39952        0.09134       -4.74102
N          2.64648        0.75017       -3.62534
O          2.27088        0.82660       -5.87954
C          2.96143        0.91313        1.02969
H          0.56367       -0.66858       -0.91254
H          0.51139        0.98714       -0.29902
H          0.57734       -0.38243        0.82758
H          2.88075       -0.95937        0.00024
H          2.77351        1.61514       -1.52445
H          2.65128       -3.69097       -3.04725
H          2.40006       -3.60191       -4.75201
H          2.07549        0.11467       -6.50952
H          2.58467        1.93957        0.94921
H          4.05548        0.96498        1.04858
H          2.62420        0.50250        1.98702
23 23 23 23 23 23 23 23 23 23 23 23 23 23 23 23 23 23 23 23 23 23 23 23 23 23 23 23 23 23 23 23 23 23 23 23 23 23 23 23 23 23 23 23 23 23 23 23 23 23 23 23 23 23 23 23 23 23 23 23 23 23 23 23
CC(NC1(N=C(N)N=C(N=1)O))C
InChI=1S/C6H11N5O/c1-3(2)8-5-9-4(7)10-6(12)11-5/h3H,1-2H3,(H4,7,8,9,10,11,12)
