22
metacyc CPD-20954  553.97678792 553.97678792 553.97678792 553.97678792 553.97678792 553.97678792 553.97678792 553.97678792 553.97678792 553.97678792 553.97678792 553.97678792 553.97678792 553.97678792 553.97678792
C          5.29060        0.01910       -1.12968
C          4.49383        1.19915       -0.57793
C          2.98035        1.07746       -0.81894
C          2.59337        1.12471       -2.27959
C          2.41652       -0.06191       -3.00633
C          2.08710       -0.02332       -4.36279
C          1.92686        1.20672       -4.99146
O          1.61031        1.29148       -6.31499
C          2.08828        2.39208       -4.28618
C          2.42507        2.35404       -2.93224
N          4.73027        1.26982        0.86553
H          5.22808       -0.02522       -2.22172
H          4.92875       -0.93476       -0.72948
H          6.35301        0.10981       -0.87542
H          4.87180        2.12329       -1.02974
H          2.45599        1.89438       -0.30332
H          2.59155        0.15308       -0.37038
H          2.54318       -1.02712       -2.52035
H          1.96214       -0.95415       -4.90580
H          1.55363        0.39203       -6.67670
H          1.95229        3.34593       -4.78990
H          2.55059        3.28960       -2.39172
22 22 22 22 22 22 22 22 22 22 22 22 22 22 22 22 22 22 22 22 22 22 22 22 22 22 22 22 22 22 22 22 22 22 22 22 22 22 22 22 22 22 22 22 22 22 22 22 22 22 22 22 22 22 22 22 22 22 22 22 22
CC(CC1(C=CC(O)=CC=1))[N+]
InChI=1S/C9H13NO/c1-7(10)6-8-2-4-9(11)5-3-8/h2-5,7,11H,6,10H2,1H3/p+1
