12
metacyc CPD-8871  167.1742304 167.1742304 167.1742304 167.1742304 167.1742304 167.1742304 167.1742304 167.1742304 167.1742304 167.1742304 167.1742304 167.1742304 167.1742304 167.1742304 167.1742304
C         -1.37800       -0.07894        0.01337
C         -0.75204        1.16969        0.00086
C          0.64029        1.24904       -0.00883
C          1.39289        0.07959       -0.00592
C          0.77869       -1.16805        0.00651
C         -0.61361       -1.24803        0.01620
F          2.73027        0.15611       -0.01523
H         -2.46371       -0.14106        0.02092
H         -1.34899        2.07806       -0.00132
H          1.14216        2.21099       -0.01860
H          1.38708       -2.06648        0.00855
H         -1.10298       -2.21855        0.02595
12 12 12 12 12 12 12 12 12 12 12 12 12 12 12 12 12 12 12 12 12 12 12 12 12 12 12 12 12 12 12
C1(C=CC(=CC=1)F)
InChI=1S/C6H5F/c7-6-4-2-1-3-5-6/h1-5H
