15
metacyc CPD-18139  289.2215104 289.2215104 289.2215104 289.2215104 289.2215104 289.2215104 289.2215104 289.2215104 289.2215104 289.2215104 289.2215104 289.2215104 289.2215104 289.2215104 289.2215104
C          1.23666       -0.04551        0.46423
C          2.57702       -0.40121       -0.01433
C          3.31928        0.15079        0.94394
C          2.48898        0.78610        1.92941
N          1.17827        0.63866        1.56922
C          3.00609        1.38636        3.00463
C          4.44499        1.38622        3.20213
C          5.29456        0.82834        2.32068
C          4.78894        0.17111        1.07970
O          5.54702       -0.31096        0.24883
H          0.35693       -0.36366       -0.11412
H          2.85484       -0.95402       -0.89052
H          2.36715        1.86038        3.74131
H          4.82158        1.85172        4.10866
H          6.36728        0.82120        2.46712
15 15 15 15 15 15 15 15 15 15 15 15 15 15 15 15 15 15 15 15 15 15 15 15 15 15 15 15 15 15 15 15 15 15 15 15 15 15 15 15
C1(C=C2(C(N=1)=CC=CC(=O)2))
InChI=1S/C8H5NO/c10-8-3-1-2-7-6(8)4-5-9-7/h1-5H
