28
metacyc CPD-19333  138.68700616 138.68700616 138.68700616 138.68700616 138.68700616 138.68700616 138.68700616 138.68700616 138.68700616 138.68700616 138.68700616 138.68700616 138.68700616 138.68700616 138.68700616
C          0.92542        0.11372        0.15290
C          2.44314        0.01373       -0.02895
C          2.96467       -1.37546       -0.44217
C          2.62947       -1.68178       -1.91670
C          3.09410       -0.53110       -2.84043
C          2.52471        0.80150       -2.29758
O          2.98433        1.90563       -3.05744
O          2.91013        1.01831       -0.94462
N          4.57177       -0.48079       -2.93851
C          5.39874       -1.14063       -3.79421
C          4.83510       -1.98054       -4.91065
O          6.61197       -1.02257       -3.63537
O          3.20711       -2.92404       -2.34143
N          2.45933       -2.42474        0.44169
H          0.58340       -0.50174        0.99170
H          0.37627       -0.20630       -0.73832
H          0.63566        1.15178        0.34695
H          2.89311        0.27075        0.93836
H          4.05678       -1.37653       -0.33954
H          1.54485       -1.79795       -2.03007
H          2.71692       -0.68667       -3.85657
H          1.43383        0.80553       -2.37999
H          3.94165        1.95039       -2.89561
H          5.07184        0.02351       -2.21548
H          3.78471       -2.23998       -4.77906
H          5.39752       -2.91885       -4.95464
H          4.95118       -1.44545       -5.85652
H          4.15214       -2.91436       -2.10258
28 28 28 28 28 28 28 28 28 28 28 28 28 28 28 28 28 28 28 28 28 28 28 28 28 28 28 28 28 28 28 28 28 28 28 28 28 28 28 28 28 28 28 28 28 28 28 28 28 28 28 28 28 28 28 28 28 28 28 28 28 28 28 28 28 28 28 28 28 28 28 28 28 28 28 28 28 28 28
CC1(C(C(C(C(O)O1)NC(C)=O)O)[N+])
InChI=1S/C8H16N2O4/c1-3-5(9)7(12)6(8(13)14-3)10-4(2)11/h3,5-8,12-13H,9H2,1-2H3,(H,10,11)/p+1/t3-,5+,6-,7+,8?/m1/s1
