23
metacyc CPD-13029  111.290793392 111.290793392 111.290793392 111.290793392 111.290793392 111.290793392 111.290793392 111.290793392 111.290793392 111.290793392 111.290793392 111.290793392 111.290793392 111.290793392 111.290793392
C          0.92044        0.15411        0.02082
O          0.32860        0.73061       -0.94730
O          0.41484       -0.46826        0.99963
C          2.49685        0.18620       -0.07788
N          2.98421        1.57982       -0.39889
O          2.37170        1.98809       -1.66633
C          3.12586       -0.36702        1.22322
C          4.64259       -0.48102        1.22049
C          5.44507        0.66844        1.23850
C          6.83211        0.57667        1.14592
C          7.44272       -0.67366        1.09924
C          6.66354       -1.82870        1.15631
C          5.27004       -1.73358        1.21050
H          2.77713       -0.46936       -0.91431
H          3.95259        1.47117       -0.70076
H          1.42284        1.69777       -1.57066
H          2.71587       -1.36703        1.41442
H          2.82749        0.24203        2.08728
H          4.98103        1.65166        1.30275
H          7.42864        1.48308        1.10596
H          8.52369       -0.74642        1.02444
H          7.13953       -2.80524        1.14890
H          4.67449       -2.64376        1.24331
23 23 23 23 23 23 23 23 23 23 23 23 23 23 23 23 23 23 23 23 23 23 23 23 23 23 23 23 23 23 23 23 23 23 23 23 23 23 23 23 23 23 23 23 23 23 23 23 23 23 23 23 23 23 23 23 23 23 23 23 23 23 23 23
C([O-])(=O)C(NO)CC1(C=CC=CC=1)
InChI=1S/C9H11NO3/c11-9(12)8(10-13)6-7-4-2-1-3-5-7/h1-5,8,10,13H,6H2,(H,11,12)/p-1/t8-/m0/s1
