22
metacyc CPD-21061  199.744549112 199.744549112 199.744549112 199.744549112 199.744549112 199.744549112 199.744549112 199.744549112 199.744549112 199.744549112 199.744549112 199.744549112 199.744549112 199.744549112 199.744549112
C          1.31991       -0.22556       -0.37241
N          2.68738        0.00152        0.00785
C          3.17870        1.24811        0.26016
O          2.50738        2.26339        0.14898
N          4.49641        1.19822        0.56534
C          5.01622        1.97917        1.45815
N          4.51909        2.87546        2.40385
C          3.11381        3.01971        2.75356
N          5.32944        3.75653        3.09013
C          6.61495        3.65739        2.94934
N          7.28290        2.72515        2.20256
C          6.55182        1.92979        1.50584
O          7.15055        0.99670        0.77052
H          1.25412       -1.17058       -0.91601
H          0.95605        0.59084       -1.00339
H          0.71127       -0.27802        0.53433
H          3.34871       -0.75895        0.07600
H          2.58414        2.06366        2.71298
H          2.62849        3.75351        2.10373
H          3.00878        3.38062        3.78408
H          7.24561        4.38146        3.49223
H          8.10777        1.10725        0.87667
22 22 22 22 22 22 22 22 22 22 22 22 22 22 22 22 22 22 22 22 22 22 22 22 22 22 22 22 22 22 22 22 22 22 22 22 22 22 22 22 22 22 22 22 22 22 22 22 22 22 22 22 22 22 22 22 22 22 22 22 22
CNC(=O)N=C1(N(C)N=CN=C(O)1)
InChI=1S/C6H9N5O2/c1-7-6(13)10-4-5(12)8-3-9-11(4)2/h3H,1-2H3,(H,7,13)(H,8,9,12)/b10-4+
