20
metacyc CPD-20128  21.5526279128 21.5526279128 21.5526279128 21.5526279128 21.5526279128 21.5526279128 21.5526279128 21.5526279128 21.5526279128 21.5526279128 21.5526279128 21.5526279128 21.5526279128 21.5526279128 21.5526279128
C          0.93130        0.05764        0.05994
C          2.42911        0.07326       -0.17774
C          2.86577       -1.09257       -1.01056
O          2.84827       -2.26341       -0.65546
C          3.28753       -0.62720       -2.34211
O          3.62157       -1.51626       -3.30569
C          3.92906       -1.04787       -4.60305
C          3.19026        0.70840       -2.23290
C          3.45129        1.79401       -3.22289
O          2.76626        1.20896       -0.99463
H          0.63317       -0.80215        0.66699
H          0.38419        0.00759       -0.88928
H          0.61101        0.97761        0.55951
H          3.00472        0.12427        0.75143
H          4.09760       -1.91908       -5.24279
H          4.84949       -0.45715       -4.59338
H          3.09138       -0.48796       -5.02930
H          3.68762        1.44677       -4.22641
H          4.28711        2.41415       -2.88259
H          2.56693        2.43592       -3.30443
20 20 20 20 20 20 20 20 20 20 20 20 20 20 20 20 20 20 20 20 20 20 20 20 20 20 20 20 20 20 20 20 20 20 20 20 20 20 20 20 20 20 20 20 20 20 20 20 20 20 20 20 20 20 20
CC1(C(=O)C(OC)=C(C)O1)
InChI=1S/C7H10O3/c1-4-6(8)7(9-3)5(2)10-4/h4H,1-3H3/t4-/m0/s1
