22
metacyc CPD-13259  296.2974912 296.2974912 296.2974912 296.2974912 296.2974912 296.2974912 296.2974912 296.2974912 296.2974912 296.2974912 296.2974912 296.2974912 296.2974912 296.2974912 296.2974912
C          2.56525        1.28125       -0.05307
C          2.33644       -0.20217        0.23491
C          0.83015       -0.48347        0.29534
C          2.99591       -1.12056       -0.81451
C          4.52611       -0.99205       -0.98238
C          5.29133       -1.30256        0.29973
C          6.79140       -1.03533        0.21268
O          7.14196       -0.06137       -0.50856
O          7.50222       -1.79495        0.93576
N          4.89768       -1.95293       -2.03262
H          2.06841        1.90107        0.70155
H          2.16444        1.56081       -1.03360
H          3.62884        1.53505       -0.03404
H          2.74789       -0.43424        1.22371
H          0.31908       -0.11652       -0.60150
H          0.38174        0.01019        1.16429
H          0.63040       -1.55660        0.38352
H          2.51696       -0.93400       -1.78650
H          2.75650       -2.16132       -0.55308
H          4.76534        0.01083       -1.35008
H          5.11573       -2.34063        0.61172
H          4.93766       -0.66219        1.11637
22 22 22 22 22 22 22 22 22 22 22 22 22 22 22 22 22 22 22 22 22 22 22 22 22 22 22 22 22 22 22 22 22 22 22 22 22 22 22 22 22 22 22 22 22 22 22 22 22 22 22 22 22 22 22 22 22 22 22 22 22
CC(C)CC(CC([O-])=O)[N+]
InChI=1S/C7H15NO2/c1-5(2)3-6(8)4-7(9)10/h5-6H,3-4,8H2,1-2H3,(H,9,10)
