23
metacyc CPD-16891  6.8769169584 6.8769169584 6.8769169584 6.8769169584 6.8769169584 6.8769169584 6.8769169584 6.8769169584 6.8769169584 6.8769169584 6.8769169584 6.8769169584 6.8769169584 6.8769169584 6.8769169584
C          1.03189       -0.14528       -0.06973
O          0.43083       -0.47618       -1.31954
C          2.56800       -0.09775       -0.21334
C          3.07719        1.19328       -0.91739
O          2.54631        1.26420       -2.24473
C          4.61844        1.18968       -1.00097
O          5.22029        1.32941        0.30725
C          5.12790       -0.11702       -1.65302
O          6.55561       -0.18491       -1.52394
C          4.49676       -1.35541       -0.98912
N          3.02540       -1.28161       -0.98872
H          0.74917       -0.93870        0.63129
H          0.62535        0.79828        0.30038
H          1.08897       -1.11860       -1.66735
H          2.96275       -0.11365        0.81135
H          2.73337        2.07465       -0.36623
H          2.42131        0.31450       -2.46861
H          4.97159        2.04085       -1.59404
H          4.88870        0.56218        0.81108
H          4.88959       -0.11552       -2.72423
H          6.73046        0.19943       -0.64427
H          4.89968       -1.48499        0.02476
H          4.83924       -2.24735       -1.52928
23 23 23 23 23 23 23 23 23 23 23 23 23 23 23 23 23 23 23 23 23 23 23 23 23 23 23 23 23 23 23 23 23 23 23 23 23 23 23 23 23 23 23 23 23 23 23 23 23 23 23 23 23 23 23 23 23 23 23 23 23 23 23 23
C(O)C1(C(O)C(O)C(O)C[N+]1)
InChI=1S/C6H13NO4/c8-2-3-5(10)6(11)4(9)1-7-3/h3-11H,1-2H2/p+1/t3-,4-,5-,6-/m1/s1
