12
metacyc CPD-11021  406.21083648 406.21083648 406.21083648 406.21083648 406.21083648 406.21083648 406.21083648 406.21083648 406.21083648 406.21083648 406.21083648 406.21083648 406.21083648 406.21083648 406.21083648
C          1.07583        0.04254       -0.06761
N          2.51554        0.06041       -0.06379
C          3.31846        1.16409       -0.06044
C          4.60099        0.66598       -0.05739
N          4.59090       -0.70536       -0.05891
C          3.32054       -1.04166       -0.06280
H          0.69678        1.06762       -0.06875
H          0.73362       -0.47937        0.82963
H          0.73832       -0.47959       -0.96651
H          2.93431        2.17425       -0.06043
H          5.53013        1.22094       -0.05419
H          2.93682       -2.05362       -0.06496
12 12 12 12 12 12 12 12 12 12 12 12 12 12 12 12 12 12 12 12 12 12 12 12 12 12 12 12 12 12 12
CN1(C=CN=C1)
InChI=1S/C4H6N2/c1-6-3-2-5-4-6/h2-4H,1H3
