17
metacyc CPD-10354  121.257344984 121.257344984 121.257344984 121.257344984 121.257344984 121.257344984 121.257344984 121.257344984 121.257344984 121.257344984 121.257344984 121.257344984 121.257344984 121.257344984 121.257344984
C          2.67297        0.12010        1.50499
C          2.45929        0.01549        0.01423
O          1.67366        0.77806       -0.55366
C          3.21662       -1.09891       -0.74224
O          2.85855       -2.37153       -0.20348
C          2.85666       -1.08459       -2.22997
C          4.72601       -0.93202       -0.58134
H          2.09083        0.95970        1.89660
H          3.72498        0.30699        1.72801
H          2.33549       -0.79646        1.99395
H          1.93723       -2.55362       -0.46431
H          1.78460       -1.26789       -2.37583
H          3.38177       -1.87866       -2.77048
H          3.09976       -0.12375       -2.69702
H          5.03448       -1.05851        0.46186
H          5.06045        0.05354       -0.92163
H          5.26547       -1.69988       -1.14805
17 17 17 17 17 17 17 17 17 17 17 17 17 17 17 17 17 17 17 17 17 17 17 17 17 17 17 17 17 17 17 17 17 17 17 17 17 17 17 17 17 17 17 17 17 17
CC(=O)C(O)(C)C
InChI=1S/C5H10O2/c1-4(6)5(2,3)7/h7H,1-3H3
