30
metacyc CPD-18163  218.480601528 218.480601528 218.480601528 218.480601528 218.480601528 218.480601528 218.480601528 218.480601528 218.480601528 218.480601528 218.480601528 218.480601528 218.480601528 218.480601528 218.480601528
C          1.04737        0.32161        0.15576
C          2.56298        0.15979       -0.01040
C          3.00839       -1.29262       -0.29703
O          2.44538       -2.13657        0.71111
C          2.65936       -1.72922       -1.76240
N          3.16158       -3.09426       -2.14013
C          2.65352       -4.16617       -1.27926
C          2.85021       -3.42987       -3.53639
C          3.16413       -0.61833       -2.74016
O          4.60452       -0.59002       -2.83808
C          2.68674        0.78007       -2.31148
O          3.26611        1.75949       -3.16466
O          3.08345        1.06840       -0.97972
H          0.67862       -0.24407        1.01701
H          0.49500       -0.01945       -0.72506
H          0.79048        1.37568        0.30201
H          3.00394        0.45620        0.94979
H          4.09760       -1.34480       -0.17577
H          1.53658       -2.35674        0.45660
H          1.56402       -1.76485       -1.83930
H          3.11721       -4.13596       -0.29049
H          2.91634       -5.15385       -1.67754
H          1.56285       -4.12937       -1.17775
H          3.40821       -2.79961       -4.23475
H          1.77882       -3.33725       -3.74842
H          3.15543       -4.45601       -3.77369
H          2.79762       -0.79104       -3.75712
H          4.96213       -0.43099       -1.94666
H          1.60148        0.87231       -2.41208
H          4.15833        1.41840       -3.36757
30 30 30 30 30 30 30 30 30 30 30 30 30 30 30 30 30 30 30 30 30 30 30 30 30 30 30 30 30 30 30 30 30 30 30 30 30 30 30 30 30 30 30 30 30 30 30 30 30 30 30 30 30 30 30 30 30 30 30 30 30 30 30 30 30 30 30 30 30 30 30 30 30 30 30 30 30 30 30 30 30 30 30 30 30
CC1(C(O)C([N+](C)C)C(O)C(O)O1)
InChI=1S/C8H17NO4/c1-4-6(10)5(9(2)3)7(11)8(12)13-4/h4-8,10-12H,1-3H3/p+1/t4-,5+,6+,7-,8?/m1/s1
