13
metacyc CPD-14102  20.6552574 20.6552574 20.6552574 20.6552574 20.6552574 20.6552574 20.6552574 20.6552574 20.6552574 20.6552574 20.6552574 20.6552574 20.6552574 20.6552574 20.6552574
C          1.08024        0.04122        0.04036
O          0.64946        0.00242       -1.31420
C          2.55422        0.16995        0.03764
C          3.41345        1.24837        0.05627
C          4.72460        0.71455        0.03605
C          4.58075       -0.65278       -0.00125
O          3.26631       -0.99346       -0.00791
H          0.75462       -0.87504        0.54217
H          0.60733        0.89590        0.53287
H          1.16503       -0.70628       -1.73899
H          3.12498        2.29041        0.07897
H          5.65904        1.25774        0.04406
H          5.27827       -1.47869       -0.02651
13 13 13 13 13 13 13 13 13 13 13 13 13 13 13 13 13 13 13 13 13 13 13 13 13 13 13 13 13 13 13 13 13 13
C(O)C1(=CC=CO1)
InChI=1S/C5H6O2/c6-4-5-2-1-3-7-5/h1-3,6H,4H2
