17
metacyc CPD-1074  314.37672256 314.37672256 314.37672256 314.37672256 314.37672256 314.37672256 314.37672256 314.37672256 314.37672256 314.37672256 314.37672256 314.37672256 314.37672256 314.37672256 314.37672256
C         -1.37568       -0.08017       -1.26873
C         -0.44685       -0.00035       -0.06819
C         -0.91741        1.02291        0.93617
C         -1.82118        0.66500        1.94933
C         -2.27760        1.61822        2.86325
C         -1.83401        2.93212        2.76074
C         -0.94581        3.30707        1.76061
C         -0.48976        2.35637        0.84619
O         -2.25505        3.89472        3.62918
N         -2.14622       -0.14638       -2.26469
H          0.56495        0.24677       -0.41101
H         -0.38279       -0.98758        0.40470
H         -2.18228       -0.35851        2.03173
H         -2.97683        1.31968        3.63809
H         -0.61465        4.33949        1.68893
H          0.19660        2.66946        0.06197
H         -2.89160        3.49944        4.24698
17 17 17 17 17 17 17 17 17 17 17 17 17 17 17 17 17 17 17 17 17 17 17 17 17 17 17 17 17 17 17 17 17 17 17 17 17 17 17 17 17 17 17 17 17 17
C(CC1(=CC=C(C=C1)O))#N
InChI=1S/C8H7NO/c9-6-5-7-1-3-8(10)4-2-7/h1-4,10H,5H2
