19
metacyc CPD-13298  521.2054824 521.2054824 521.2054824 521.2054824 521.2054824 521.2054824 521.2054824 521.2054824 521.2054824 521.2054824 521.2054824 521.2054824 521.2054824 521.2054824 521.2054824
C          1.29404        0.07757        0.08759
C          2.74377       -0.04637       -0.20247
N          3.54761        1.05005       -0.40252
C          4.81960        0.65610       -0.74709
C          4.84130       -0.73666       -0.71320
C          3.53659       -1.16752       -0.34685
C          6.03662       -1.40480       -1.04021
C          7.16236       -0.65681       -1.40439
C          7.11165        0.73570       -1.43179
C          5.93980        1.42089       -1.09272
H          0.98323        1.12440        0.16075
H          1.04390       -0.42035        1.02939
H          0.71289       -0.39063       -0.71426
H          3.24724        2.01162       -0.34131
H          3.20546       -2.19115       -0.23701
H          6.08059       -2.49162       -1.02704
H          8.08097       -1.16980       -1.67666
H          7.99467        1.29860       -1.72286
H          5.90393        2.50536       -1.11597
19 19 19 19 19 19 19 19 19 19 19 19 19 19 19 19 19 19 19 19 19 19 19 19 19 19 19 19 19 19 19 19 19 19 19 19 19 19 19 19 19 19 19 19 19 19 19 19 19 19 19 19
CC1(NC2(=C(C=1)C=CC=C2))
InChI=1S/C9H9N/c1-7-6-8-4-2-3-5-9(8)10-7/h2-6,10H,1H3
