24
metacyc CPD-18517  230.29706688 230.29706688 230.29706688 230.29706688 230.29706688 230.29706688 230.29706688 230.29706688 230.29706688 230.29706688 230.29706688 230.29706688 230.29706688 230.29706688 230.29706688
C          1.58652        1.19423        0.43640
O          2.47279        0.13422        0.08867
C          3.05154        0.22136       -1.15066
C          3.33531        1.46175       -1.74312
C          3.90610        1.54038       -3.01484
C          4.22554        0.37893       -3.71902
C          4.81985        0.46986       -5.09675
O          3.89855        1.08800       -5.98630
C          3.98176       -0.85749       -3.11242
C          3.40860       -0.95429       -1.83255
O          3.26442       -2.25767       -1.43374
C          2.75015       -2.53110       -0.14016
H          1.01298        0.87798        1.31331
H          0.87381        1.40331       -0.37044
H          2.14211        2.09428        0.71403
H          3.12994        2.39509       -1.22840
H          4.10192        2.51663       -3.45533
H          5.05972       -0.52030       -5.49611
H          5.74265        1.05840       -5.07636
H          3.02310        0.71102       -5.79136
H          4.23897       -1.77820       -3.63534
H          2.77965       -3.61669        0.00189
H          1.70303       -2.22403       -0.06038
H          3.37205       -2.08866        0.64413
24 24 24 24 24 24 24 24 24 24 24 24 24 24 24 24 24 24 24 24 24 24 24 24 24 24 24 24 24 24 24 24 24 24 24 24 24 24 24 24 24 24 24 24 24 24 24 24 24 24 24 24 24 24 24 24 24 24 24 24 24 24 24 24 24 24 24
COC1(C=CC(CO)=CC(OC)=1)
InChI=1S/C9H11O3/c1-11-8-4-3-7(6-10)5-9(8)12-2/h3-5H,6H2,1-2H3
