13
metacyc CPD0-1952  25.6901185688 25.6901185688 25.6901185688 25.6901185688 25.6901185688 25.6901185688 25.6901185688 25.6901185688 25.6901185688 25.6901185688 25.6901185688 25.6901185688 25.6901185688 25.6901185688 25.6901185688
C          1.07311       -0.00604       -0.04118
C          2.59415       -0.05655        0.03150
C          3.16561        0.67983        1.24542
N          2.73423        0.04062        2.49551
C          4.71477        0.70159        1.25945
O          5.30126       -0.26860        0.69555
O          5.22905        1.72753        1.80002
H          0.72546       -0.48915       -0.95998
H          0.71360        1.02775       -0.04483
H          0.61464       -0.52932        0.80354
H          3.00194        0.39227       -0.88326
H          2.91203       -1.10697        0.02763
H          2.80617        1.71586        1.24143
13 13 13 13 13 13 13 13 13 13 13 13 13 13 13 13 13 13 13 13 13 13 13 13 13 13 13 13 13 13 13 13 13 13
CCC([N+])C(=O)[O-]
InChI=1S/C4H9NO2/c1-2-3(5)4(6)7/h3H,2,5H2,1H3,(H,6,7)/t3-/m1/s1
