15
metacyc CPD0-2084  289.90032256 289.90032256 289.90032256 289.90032256 289.90032256 289.90032256 289.90032256 289.90032256 289.90032256 289.90032256 289.90032256 289.90032256 289.90032256 289.90032256 289.90032256
C          0.97850       -0.06756        0.12344
C          2.47433       -0.06140        0.03679
C          3.18452        1.14251       -0.01567
N          4.56667        1.17039       -0.10491
O          5.19197        2.27351       -0.15014
C          5.24949       -0.03185       -0.14461
C          4.57678       -1.25082       -0.09722
C          3.18764       -1.26163       -0.00745
H          0.57937        0.94758        0.22019
H          0.65211       -0.63930        0.99800
H          0.55113       -0.51485       -0.77966
H          2.74504        2.12840        0.00736
H          6.31978        0.08505       -0.21498
H          5.13506       -2.18227       -0.13121
H          2.66129       -2.21434        0.02775
15 15 15 15 15 15 15 15 15 15 15 15 15 15 15 15 15 15 15 15 15 15 15 15 15 15 15 15 15 15 15 15 15 15 15 15 15 15 15 15
CC1(C=N(=O)C=CC=1)
InChI=1S/C6H7NO/c1-6-3-2-4-7(8)5-6/h2-5H,1H3
