20
metacyc CPD0-918  248.53068784 248.53068784 248.53068784 248.53068784 248.53068784 248.53068784 248.53068784 248.53068784 248.53068784 248.53068784 248.53068784 248.53068784 248.53068784 248.53068784 248.53068784
C         -0.28763        1.06744       -0.63587
N          0.77089        0.10455       -1.03350
C          0.72213       -0.76921       -0.08270
C          1.58383       -1.97739        0.04569
C          3.05085       -1.56050        0.04305
C          3.39323       -0.69092        1.25111
O          2.59938       -0.43582        2.15741
N          4.66635       -0.16577        1.23278
O          5.04408        0.58040        2.37300
N          3.89158       -2.75650        0.11955
C         -0.31922       -0.45312        0.91326
N         -0.95292        0.62067        0.60865
H         -1.02837        1.14718       -1.43820
H          0.16307        2.05272       -0.47445
H          1.36809       -2.63289       -0.80714
H          1.31792       -2.52228        0.95889
H          3.29860       -1.00296       -0.86713
H          5.42000       -0.58616        0.69654
H          4.21581        0.60719        2.90009
H         -0.47408       -1.11280        1.77641
20 20 20 20 20 20 20 20 20 20 20 20 20 20 20 20 20 20 20 20 20 20 20 20 20 20 20 20 20 20 20 20 20 20 20 20 20 20 20 20 20 20 20 20 20 20 20 20 20 20 20 20 20 20 20
C1(N=C(CC(C(=O)NO)[N+])C=N1)
InChI=1S/C6H10N4O2/c7-5(6(11)10-12)1-4-2-8-3-9-4/h2,5,12H,1,3,7H2,(H,10,11)/p+1
