32
metacyc CPD0-1675  509.152407664 509.152407664 509.152407664 509.152407664 509.152407664 509.152407664 509.152407664 509.152407664 509.152407664 509.152407664 509.152407664 509.152407664 509.152407664 509.152407664 509.152407664
C          1.64484       -3.13654        0.98974
C          2.99924       -3.42481        0.36797
C          3.25115       -2.58995       -0.88529
C          4.66208       -2.80827       -1.36585
O          5.32628       -3.81516       -1.17939
O          5.14014       -1.70017       -2.00291
C          6.57433       -1.65420       -2.08895
C          7.14818       -2.57212       -3.18286
N          8.69792       -2.61207       -3.21576
C          9.28492       -1.23232       -3.47482
C          9.25748       -3.18125       -1.91290
C          9.12153       -3.54248       -4.35480
H          1.50273       -3.75399        1.88281
H          0.83454       -3.35895        0.28863
H          1.56529       -2.08547        1.28874
H          3.06346       -4.49205        0.12146
H          3.78187       -3.22725        1.10967
H          3.13014       -1.52763       -0.63881
H          2.55065       -2.84524       -1.68633
H          6.98772       -1.88240       -1.10089
H          6.82853       -0.61209       -2.30236
H          6.81328       -2.22633       -4.16904
H          6.81111       -3.60751       -3.07660
H          9.06622       -0.58800       -2.61938
H          8.83406       -0.83110       -4.38746
H         10.36803       -1.33257       -3.59376
H          9.05277       -2.48121       -1.10098
H         10.33975       -3.29845       -2.02656
H          8.78391       -4.14873       -1.72534
H          8.72449       -3.14365       -5.29244
H          8.71692       -4.54014       -4.15691
H         10.21481       -3.57540       -4.38787
32 32 32 32 32 32 32 32 32 32 32 32 32 32 32 32 32 32 32 32 32 32 32 32 32 32 32 32 32 32 32 32 32 32 32 32 32 32 32 32 32 32 32 32 32 32 32 32 32 32 32 32 32 32 32 32 32 32 32 32 32 32 32 32 32 32 32 32 32 32 32 32 32 32 32 32 32 32 32 32 32 32 32 32 32 32 32 32 32 32 32
CCCC(=O)OCC[N+](C)(C)C
InChI=1S/C9H20NO2/c1-5-6-9(11)12-8-7-10(2,3)4/h5-8H2,1-4H3/q+1
