13
metacyc CPD0-1942  25.6901185688 25.6901185688 25.6901185688 25.6901185688 25.6901185688 25.6901185688 25.6901185688 25.6901185688 25.6901185688 25.6901185688 25.6901185688 25.6901185688 25.6901185688 25.6901185688 25.6901185688
C          1.04037        0.07598        0.00188
C          2.56043        0.04750       -0.08858
C          3.13097       -1.36750       -0.21118
N          2.69837       -1.99894       -1.46416
C          4.68053       -1.39212       -0.20403
O          5.26668       -0.36335       -0.65235
O          5.19550       -2.43406        0.30391
H          0.69267        1.10280        0.15565
H          0.68429       -0.53079        0.84045
H          0.57702       -0.29758       -0.91671
H          2.97225        0.52261        0.81088
H          2.87435        0.66903       -0.93680
H          2.77269       -1.97564        0.62823
13 13 13 13 13 13 13 13 13 13 13 13 13 13 13 13 13 13 13 13 13 13 13 13 13 13 13 13 13 13 13 13 13 13
CCC([N+])C(=O)[O-]
InChI=1S/C4H9NO2/c1-2-3(5)4(6)7/h3H,2,5H2,1H3,(H,6,7)/t3-/m0/s1
