17
metacyc CPD0-1105  147.351467664 147.351467664 147.351467664 147.351467664 147.351467664 147.351467664 147.351467664 147.351467664 147.351467664 147.351467664 147.351467664 147.351467664 147.351467664 147.351467664 147.351467664
C         -0.62274        1.17669       -0.00398
C          0.76878        1.17660        0.03530
C          1.45197       -0.03252        0.01529
C          0.73118       -1.21739       -0.04787
C         -0.65860       -1.17108       -0.07087
N         -1.30983        0.01494       -0.03461
C         -2.79199        0.03547       -0.03048
C         -3.41833       -0.47480       -1.32349
O         -2.80190       -1.42194       -1.88522
O         -4.48052        0.11525       -1.65845
H         -1.19424        2.09956       -0.00070
H          1.31471        2.11569        0.07447
H          2.53963       -0.05273        0.03428
H          1.24098       -2.17624       -0.09096
H         -1.26140       -2.07329       -0.13202
H         -3.11934        1.06346        0.16490
H         -3.11308       -0.58349        0.81469
17 17 17 17 17 17 17 17 17 17 17 17 17 17 17 17 17 17 17 17 17 17 17 17 17 17 17 17 17 17 17 17 17 17 17 17 17 17 17 17 17 17 17 17 17 17
C1(=CC=CC=[N+]1CC([O-])=O)
InChI=1S/C7H7NO2/c9-7(10)6-8-4-2-1-3-5-8/h1-5H,6H2
