16
metacyc CPD0-2461  97.598506952 97.598506952 97.598506952 97.598506952 97.598506952 97.598506952 97.598506952 97.598506952 97.598506952 97.598506952 97.598506952 97.598506952 97.598506952 97.598506952 97.598506952
C         -2.28757       -0.10918        0.00028
N         -1.51100       -1.17657       -0.00257
C         -0.23697       -0.67161       -0.00796
C         -0.25174        0.69105       -0.00143
N          0.91384        1.39682        0.00122
C          2.14316        0.65657        0.00140
N          2.14340       -0.71598       -0.00636
C          1.02532       -1.36286       -0.01638
N          0.90170       -2.71155       -0.04048
O          3.14629        1.34977        0.00725
N         -1.55992        1.05947        0.00051
H         -3.37122       -0.11372        0.00241
H          0.97955        2.40352        0.00408
H          1.71956       -3.30245        0.02626
H         -0.01611       -3.14286        0.02605
H         -1.94319        1.99507        0.00287
16 16 16 16 16 16 16 16 16 16 16 16 16 16 16 16 16 16 16 16 16 16 16 16 16 16 16 16 16 16 16 16 16 16 16 16 16 16 16 16 16 16 16
C2(=NC1(=C(NC(N=C(N)1)=O)N2))
InChI=1S/C5H5N5O/c6-3-2-4(8-1-7-2)10-5(11)9-3/h1H,(H4,6,7,8,9,10,11)
