19
metacyc CPD0-1633  243.750815112 243.750815112 243.750815112 243.750815112 243.750815112 243.750815112 243.750815112 243.750815112 243.750815112 243.750815112 243.750815112 243.750815112 243.750815112 243.750815112 243.750815112
C          2.41611        0.71829        0.00705
C          2.45386       -0.67078        0.01187
C          1.26129       -1.40092        0.01426
O          1.34866       -2.76555        0.01576
C         -0.00612       -0.75942        0.01080
N         -1.26067       -1.44234        0.01831
O         -1.37852       -2.71328        0.04191
C         -2.43797       -0.69919        0.00023
C         -2.44269        0.68689       -0.02163
C         -1.23236        1.36258       -0.01934
C         -0.01797        0.66494       -0.00220
C          1.19032        1.38008       -0.00078
H          3.34204        1.28850        0.00723
H          3.41779       -1.17198        0.01352
H          2.27373       -3.05291        0.00687
H         -3.32478       -1.31635        0.00408
H         -3.38296        1.23029       -0.03919
H         -1.24321        2.45193       -0.03366
H          1.18868        2.46910       -0.00601
19 19 19 19 19 19 19 19 19 19 19 19 19 19 19 19 19 19 19 19 19 19 19 19 19 19 19 19 19 19 19 19 19 19 19 19 19 19 19 19 19 19 19 19 19 19 19 19 19 19 19 19
C2(C=C(O)C1(N(=O)=CC=CC=1C=2))
InChI=1S/C9H7NO2/c11-8-5-1-3-7-4-2-6-10(12)9(7)8/h1-6,11H
