19
metacyc CPD0-1430  589.65224968 589.65224968 589.65224968 589.65224968 589.65224968 589.65224968 589.65224968 589.65224968 589.65224968 589.65224968 589.65224968 589.65224968 589.65224968 589.65224968 589.65224968
C          3.36763       -0.05259       -1.17072
N          3.29758       -0.95659       -2.03590
N          4.31145        0.91804       -1.37569
C          2.37950       -0.03986       -0.02686
C          2.91832        0.57975        1.24019
C          2.74038        1.94739        1.49342
C          3.24537        2.52296        2.66000
C          3.93416        1.73807        3.58316
C          4.12442        0.37933        3.33710
C          3.62383       -0.19753        2.16861
H          5.06517        0.67716       -2.01211
H          4.62663        1.43433       -0.55730
H          2.04839       -1.06526        0.18487
H          1.48635        0.50621       -0.35578
H          2.20527        2.57078        0.78006
H          3.09801        3.58285        2.85031
H          4.32069        2.18507        4.49534
H          4.66009       -0.23288        4.05791
H          3.78046       -1.25862        1.98918
19 19 19 19 19 19 19 19 19 19 19 19 19 19 19 19 19 19 19 19 19 19 19 19 19 19 19 19 19 19 19 19 19 19 19 19 19 19 19 19 19 19 19 19 19 19 19 19 19 19 19 19
C(=[N+])(N)CC1(C=CC=CC=1)
InChI=1S/C8H10N2/c9-8(10)6-7-4-2-1-3-5-7/h1-5H,6H2,(H3,9,10)/p+1
