18
metacyc CPD0-1930  95.097993744 95.097993744 95.097993744 95.097993744 95.097993744 95.097993744 95.097993744 95.097993744 95.097993744 95.097993744 95.097993744 95.097993744 95.097993744 95.097993744 95.097993744
C          1.00439        0.09472       -0.13155
C          2.49685        0.09590       -0.04586
C          3.22523       -1.20540       -0.02947
O          2.59169       -2.25938       -0.03333
N          4.61018       -1.13698       -0.00855
C          5.37816       -2.36426       -0.03828
C          5.32157        0.04812        0.08278
O          6.54674        0.11714        0.14685
N          4.57239        1.19246        0.10018
C          3.21362        1.22161        0.02897
H          0.57249       -0.89883        0.02335
H          0.68275        0.44595       -1.11732
H          0.57250        0.75336        0.62989
H          4.74784       -3.25005       -0.14644
H          5.95532       -2.44458        0.88907
H          6.08041       -2.32290       -0.87734
H          5.10426        2.05321        0.16153
H          2.75376        2.20492        0.03037
18 18 18 18 18 18 18 18 18 18 18 18 18 18 18 18 18 18 18 18 18 18 18 18 18 18 18 18 18 18 18 18 18 18 18 18 18 18 18 18 18 18 18 18 18 18 18 18 18
CC1(C(=O)N(C)C(=O)NC=1)
InChI=1S/C6H8N2O2/c1-4-3-7-6(10)8(2)5(4)9/h3H,1-2H3,(H,7,10)
