15
metacyc CPD0-1143  98.761156872 98.761156872 98.761156872 98.761156872 98.761156872 98.761156872 98.761156872 98.761156872 98.761156872 98.761156872 98.761156872 98.761156872 98.761156872 98.761156872 98.761156872
C          0.95210       -1.44190       -0.00090
O          1.01716       -2.66668       -0.00246
C         -0.27987       -0.67803       -0.00104
N         -1.58117       -1.08342       -0.00252
N         -2.34521        0.01264       -0.00177
N         -1.52955        1.08894        0.00012
C         -0.23286        0.69245        0.00069
N          0.90307        1.41786        0.00269
C          2.10459        0.74514        0.00328
N          3.26473        1.29117        0.00561
N          2.09137       -0.63579        0.00133
H         -1.94111        2.01440        0.00093
H          0.92167        2.43034        0.00394
H          3.18379        2.30977        0.00708
H          2.98523       -1.10194        0.00175
15 15 15 15 15 15 15 15 15 15 15 15 15 15 15 15 15 15 15 15 15 15 15 15 15 15 15 15 15 15 15 15 15 15 15 15 15 15 15 15
C2(=O)(C1(N=NNC=1NC(=N)N2))
InChI=1S/C4H4N6O/c5-4-6-2-1(3(11)7-4)8-10-9-2/h(H4,5,6,7,8,9,10,11)
