14
metacyc CPD0-1239  542.73308288 542.73308288 542.73308288 542.73308288 542.73308288 542.73308288 542.73308288 542.73308288 542.73308288 542.73308288 542.73308288 542.73308288 542.73308288 542.73308288 542.73308288
C          1.06702       -0.03189        0.06878
F          0.65805       -1.18306        0.66896
C          2.59344       -0.01883        0.02076
C          3.08976       -1.21938       -0.79850
N          4.54627       -1.30478       -0.78999
C          3.11385        1.33174       -0.49189
N          2.66689        1.63156       -1.84706
H          0.67912        0.80248        0.66095
H          0.61424        0.00172       -0.92675
H          2.95368       -0.14844        1.05074
H          2.74259       -1.16177       -1.83527
H          2.69351       -2.15073       -0.37925
H          4.20806        1.36060       -0.46577
H          2.76617        2.13271        0.17010
14 14 14 14 14 14 14 14 14 14 14 14 14 14 14 14 14 14 14 14 14 14 14 14 14 14 14 14 14 14 14 14 14 14 14 14 14
C(F)C(C[N+])C[N+]
InChI=1S/C4H11FN2/c5-1-4(2-6)3-7/h4H,1-3,6-7H2/p+2
