26
metacyc CPD0-2555  204.547124224 204.547124224 204.547124224 204.547124224 204.547124224 204.547124224 204.547124224 204.547124224 204.547124224 204.547124224 204.547124224 204.547124224 204.547124224 204.547124224 204.547124224
C          3.06544       -1.53053        0.07259
C          2.57612       -0.10812       -0.20059
C          1.04749       -0.10895       -0.33316
C          2.99715        0.88083        0.91119
C          4.51184        1.08760        1.09016
N          5.10183        1.61270       -0.14297
C          4.78809        2.06346        2.24721
N          6.03834        2.62074        2.26713
C          6.52515        3.54188        3.30261
C          8.06651        3.71195        3.31309
O          8.52631        4.45366        4.22732
O          8.67252        3.08238        2.38961
O          3.96308        2.25865        3.14268
H          2.71370       -2.21595       -0.70521
H          2.69658       -1.89808        1.03611
H          4.15700       -1.58188        0.08030
H          2.99037        0.22116       -1.16101
H          0.56674       -0.36448        0.61668
H          0.72030       -0.83539       -1.08384
H          0.68538        0.87594       -0.64356
H          2.56634        0.54118        1.85989
H          2.53286        1.85534        0.70440
H          5.00075        0.14157        1.35032
H          6.73632        2.41236        1.55389
H          6.17607        3.18707        4.27764
H          6.06436        4.51628        3.10388
26 26 26 26 26 26 26 26 26 26 26 26 26 26 26 26 26 26 26 26 26 26 26 26 26 26 26 26 26 26 26 26 26 26 26 26 26 26 26 26 26 26 26 26 26 26 26 26 26 26 26 26 26 26 26 26 26 26 26 26 26 26 26 26 26 26 26 26 26 26 26 26 26
CC(C)CC([N+])C(NCC([O-])=O)=O
InChI=1S/C8H16N2O3/c1-5(2)3-6(9)8(13)10-4-7(11)12/h5-6H,3-4,9H2,1-2H3,(H,10,13)(H,11,12)/t6-/m0/s1
