26
metacyc CPD0-2459  206.044745184 206.044745184 206.044745184 206.044745184 206.044745184 206.044745184 206.044745184 206.044745184 206.044745184 206.044745184 206.044745184 206.044745184 206.044745184 206.044745184 206.044745184
C          1.09202       -0.18466        0.17863
O          0.71121       -0.71845       -1.08030
C          2.61079        0.02859        0.19582
N          3.08990        0.93448       -0.92903
H          2.69000        0.55713       -1.81492
C          2.57994        2.35832       -0.81387
C          2.87682        3.17258       -2.08071
O          2.50963        2.39034       -3.21222
C          4.60847        0.85086       -1.11150
C          5.02986       -0.53523       -1.60526
O          4.19538       -0.87963       -2.70434
H          0.81543       -0.89896        0.96593
H          0.52739        0.73810        0.36463
H         -0.06953       -1.28862       -0.94229
H          3.06571       -0.95250        0.04512
H          2.95547        0.44772        1.13457
H          3.01533        2.81061        0.07970
H          1.49344        2.29396       -0.70578
H          3.93083        3.43265       -2.15385
H          2.30181        4.11027       -2.07814
H          2.91588        2.79149       -4.00379
H          5.08034        1.13259       -0.16688
H          4.87275        1.57133       -1.88257
H          4.92447       -1.29440       -0.82456
H          6.07700       -0.52289       -1.92132
H          4.18264       -1.85225       -2.78811
26 26 26 26 26 26 26 26 26 26 26 26 26 26 26 26 26 26 26 26 26 26 26 26 26 26 26 26 26 26 26 26 26 26 26 26 26 26 26 26 26 26 26 26 26 26 26 26 26 26 26 26 26 26 26 26 26 26 26 26 26 26 26 26 26 26 26 26 26 26 26 26 26
C(O)C[NH+](CCO)CCO
InChI=1S/C6H15NO3/c8-4-1-7(2-5-9)3-6-10/h8-10H,1-6H2/p+1
