10
metacyc CPD0-1491  282.731649424 282.731649424 282.731649424 282.731649424 282.731649424 282.731649424 282.731649424 282.731649424 282.731649424 282.731649424 282.731649424 282.731649424 282.731649424 282.731649424 282.731649424
C         -1.05972       -0.07885       -0.01327
N         -0.28645        1.03729       -0.01015
N          1.01566        0.72022        0.03800
C          0.96116       -0.60694        0.09167
N          2.00348       -1.42767        0.15187
N         -0.28913       -1.13959        0.04198
H         -2.13887       -0.06007       -0.05518
H         -0.56203        2.01191       -0.04220
H          2.89868       -1.05142       -0.12730
H          1.83995       -2.38801       -0.11774
10 10 10 10 10 10 10 10 10 10 10 10 10 10 10 10 10 10 10 10 10 10 10 10 10
C1(NN=C(N)N=1)
InChI=1S/C2H4N4/c3-2-4-1-5-6-2/h1H,(H3,3,4,5,6)
