15
metacyc CPD0-2085  289.90032256 289.90032256 289.90032256 289.90032256 289.90032256 289.90032256 289.90032256 289.90032256 289.90032256 289.90032256 289.90032256 289.90032256 289.90032256 289.90032256 289.90032256
C          0.97802        0.06957        0.13713
C          2.47586        0.09876        0.04407
C          3.16937        1.30974       -0.00820
C          4.56132        1.30756       -0.10453
N          5.28075        0.12722       -0.15287
O          6.54579        0.14052       -0.24214
C          4.58655       -1.06770       -0.10279
C          3.19524       -1.09795       -0.00608
H          0.56264        1.07751        0.23948
H          0.66458       -0.51063        1.01099
H          0.55440       -0.38126       -0.76602
H          2.64096        2.25938        0.02496
H          5.18139        2.18942       -0.15027
H          5.22468       -1.93662       -0.14695
H          2.68328       -2.05668        0.02900
15 15 15 15 15 15 15 15 15 15 15 15 15 15 15 15 15 15 15 15 15 15 15 15 15 15 15 15 15 15 15 15 15 15 15 15 15 15 15 15
CC1(C=CN(=O)=CC=1)
InChI=1S/C6H7NO/c1-6-2-4-7(8)5-3-6/h2-5H,1H3
