23
metacyc CPD0-2477  315.822729696 315.822729696 315.822729696 315.822729696 315.822729696 315.822729696 315.822729696 315.822729696 315.822729696 315.822729696 315.822729696 315.822729696 315.822729696 315.822729696 315.822729696
C          2.92473       -1.19192       -3.21893
C          2.52020       -0.44880       -1.95347
C          3.04475       -1.10389       -0.67083
C          4.55089       -1.16358       -0.57968
C          5.30502        0.02128       -0.54398
C          6.70304       -0.01637       -0.47597
C          7.37397       -1.23813       -0.43560
C          6.63397       -2.41296       -0.46191
O          7.23482       -3.64281       -0.42912
C          5.23901       -2.37727       -0.52909
O          4.55851       -3.56421       -0.55235
H          2.47776       -0.71111       -4.09537
H          2.58192       -2.23128       -3.19089
H          4.00979       -1.18947       -3.35771
H          1.42503       -0.41559       -1.90275
H          2.86083        0.59066       -2.02296
H          2.60535       -2.10408       -0.57861
H          2.67620       -0.53942        0.19552
H          4.80483        0.98668       -0.57381
H          7.26534        0.91407       -0.45587
H          8.45737       -1.25046       -0.38313
H          8.19790       -3.50587       -0.42931
H          5.25690       -4.24671       -0.49827
23 23 23 23 23 23 23 23 23 23 23 23 23 23 23 23 23 23 23 23 23 23 23 23 23 23 23 23 23 23 23 23 23 23 23 23 23 23 23 23 23 23 23 23 23 23 23 23 23 23 23 23 23 23 23 23 23 23 23 23 23 23 23 23
CCCC1(C=CC=C(O)C(O)=1)
InChI=1S/C9H12O2/c1-2-4-7-5-3-6-8(10)9(7)11/h3,5-6,10-11H,2,4H2,1H3
