23
metacyc CPD0-2400  494.05671976 494.05671976 494.05671976 494.05671976 494.05671976 494.05671976 494.05671976 494.05671976 494.05671976 494.05671976 494.05671976 494.05671976 494.05671976 494.05671976 494.05671976
C          1.10779        0.06467       -0.01034
N          2.54850       -0.02315       -0.00346
C          3.27486       -1.18816       -0.00860
C          4.62904       -0.87332        0.00395
C          5.77406       -1.83078       -0.02273
N          5.71999       -2.67433        1.16494
C          4.69043        0.55055        0.00064
C          3.40255        1.04433       -0.01185
N          3.01417        2.34253       -0.05585
C          4.00418        3.19003       -0.08789
N          3.75496        4.52174       -0.16779
N          5.32984        2.81868       -0.04636
C          5.77014        1.51012       -0.01662
O          6.96003        1.21560       -0.02703
H          0.68129       -0.94100       -0.01163
H          0.79763        0.59892       -0.91224
H          0.78906        0.60095        0.88688
H          2.78150       -2.15210       -0.01729
H          6.73722       -1.31628       -0.05113
H          5.70959       -2.45771       -0.91877
H          2.79038        4.75485        0.04330
H          4.42898        5.16257        0.22576
H          6.05210        3.51433       -0.10175
23 23 23 23 23 23 23 23 23 23 23 23 23 23 23 23 23 23 23 23 23 23 23 23 23 23 23 23 23 23 23 23 23 23 23 23 23 23 23 23 23 23 23 23 23 23 23 23 23 23 23 23 23 23 23 23 23 23 23 23 23 23 23 23
CN1(C=C(C[N+])C2(=C1N=C(N)NC(=O)2))
InChI=1S/C8H11N5O/c1-13-3-4(2-9)5-6(13)11-8(10)12-7(5)14/h3H,2,9H2,1H3,(H3,10,11,12,14)/p+1
