19
metacyc CPD0-1488  130.695223072 130.695223072 130.695223072 130.695223072 130.695223072 130.695223072 130.695223072 130.695223072 130.695223072 130.695223072 130.695223072 130.695223072 130.695223072 130.695223072 130.695223072
C          1.02797        0.09449        0.13713
C          2.52228        0.11035        0.03274
C          3.22189        1.32014       -0.06512
C          4.62755        1.35908       -0.18744
C          5.32068        2.70397       -0.33204
O          6.52698        2.69558       -0.75109
O          4.64679        3.74667       -0.05002
C          5.33053        0.13864       -0.22638
N          6.74417        0.09705       -0.23445
C          4.63225       -1.06985       -0.09790
C          3.24083       -1.08672        0.01542
H          0.62090        1.10526        0.24477
H          0.71426       -0.48468        1.01160
H          0.59416       -0.35127       -0.76376
H          2.68182        2.26704       -0.05262
H          7.07428        1.05222       -0.49059
H          7.10046       -0.58389       -0.89033
H          5.18123       -2.00614       -0.07376
H          2.72568       -2.03848        0.10322
19 19 19 19 19 19 19 19 19 19 19 19 19 19 19 19 19 19 19 19 19 19 19 19 19 19 19 19 19 19 19 19 19 19 19 19 19 19 19 19 19 19 19 19 19 19 19 19 19 19 19 19
CC1(C=C(C(=O)[O-])C(N)=CC=1)
InChI=1S/C8H9NO2/c1-5-2-3-7(9)6(4-5)8(10)11/h2-4H,9H2,1H3,(H,10,11)/p-1
