19
metacyc CPD0-1932  288.23090656 288.23090656 288.23090656 288.23090656 288.23090656 288.23090656 288.23090656 288.23090656 288.23090656 288.23090656 288.23090656 288.23090656 288.23090656 288.23090656 288.23090656
C          1.09226       -0.02425        0.07760
N          2.54427        0.01267        0.05420
C          3.28576        1.19381        0.12521
N          2.64366        2.39806        0.19461
N          4.59186        1.26666        0.12923
C          5.25205        0.04534        0.07305
N          6.60030       -0.15823        0.06956
C          6.74452       -1.46758        0.03680
N          5.53446       -2.10920        0.01249
C          4.58091       -1.13640        0.02651
C          3.16936       -1.23752        0.01500
O          2.57743       -2.31272       -0.02051
H          0.63216        0.96354        0.10700
H          0.76773       -0.58803        0.95841
H          0.73924       -0.55187       -0.81530
H          1.81542        2.51269       -0.37107
H          3.30224        3.16051        0.05600
H          7.68535       -2.00199        0.03467
H          5.37331       -3.10719       -0.00687
19 19 19 19 19 19 19 19 19 19 19 19 19 19 19 19 19 19 19 19 19 19 19 19 19 19 19 19 19 19 19 19 19 19 19 19 19 19 19 19 19 19 19 19 19 19 19 19 19 19 19 19
CN2(C(N)=NC1(N=CNC=1C(=O)2))
InChI=1S/C6H7N5O/c1-11-5(12)3-4(9-2-8-3)10-6(11)7/h2H,1H3,(H2,7,10)(H,8,9)
