29
metacyc CPD0-1716  375.07706488 375.07706488 375.07706488 375.07706488 375.07706488 375.07706488 375.07706488 375.07706488 375.07706488 375.07706488 375.07706488 375.07706488 375.07706488 375.07706488 375.07706488
C          0.91019       -0.09520       -0.14465
C          2.43497        0.00748        0.00113
C          3.11692       -0.09582       -1.36613
C          2.82452        1.34935        0.68900
C          2.36525        2.66394        0.05760
O          3.32908        3.16609       -0.85128
N          3.58266        1.44582        1.74590
C          4.06216        0.24511        2.31878
C          3.73295       -1.01281        1.83810
N          2.83574       -1.15303        0.79805
N          4.20833       -2.15470        2.36681
C          5.03507       -2.04458        3.40895
N          5.51363       -3.21339        3.96264
N          5.39985       -0.89881        3.98598
C          4.90476        0.20852        3.41240
O          5.31651        1.35190        4.02887
H          0.49084        0.69342       -0.77453
H          0.42186       -0.03283        0.83563
H          0.61996       -1.05295       -0.59293
H          2.85601        0.74491       -2.01677
H          2.82830       -1.01804       -1.88436
H          4.20844       -0.10805       -1.26290
H          2.20705        3.40988        0.84375
H          1.42387        2.54305       -0.47656
H          4.08306        3.46718       -0.31017
H          2.76339       -2.09059        0.42892
H          4.89390       -3.98011        3.73531
H          5.74168       -3.07312        4.93699
H          5.87426        0.98134        4.73430
29 29 29 29 29 29 29 29 29 29 29 29 29 29 29 29 29 29 29 29 29 29 29 29 29 29 29 29 29 29 29 29 29 29 29 29 29 29 29 29 29 29 29 29 29 29 29 29 29 29 29 29 29 29 29 29 29 29 29 29 29 29 29 29 29 29 29 29 29 29 29 29 29 29 29 29 29 29 29 29 29 29
CC1(C)(C(CO)=NC2(=C(N1)N=C(N)N=C(O)2))
InChI=1S/C9H13N5O2/c1-9(2)4(3-15)11-5-6(14-9)12-8(10)13-7(5)16/h15H,3H2,1-2H3,(H4,10,12,13,14,16)
