24
metacyc CPD0-1537  6.8304159824 6.8304159824 6.8304159824 6.8304159824 6.8304159824 6.8304159824 6.8304159824 6.8304159824 6.8304159824 6.8304159824 6.8304159824 6.8304159824 6.8304159824 6.8304159824 6.8304159824
C          1.06284        0.23005       -0.22353
C          0.41347       -0.31264       -1.50549
C          0.65404       -1.80317       -1.75296
C          0.04637       -2.72365       -0.66642
O         -1.18985       -2.59842       -0.42213
O          0.87740       -3.51002       -0.11272
N          0.05176       -2.19623       -3.03776
C          2.58760        0.10158       -0.14847
C          3.34524        0.87642       -1.21335
C          3.19961        2.36496       -1.24886
O          4.03076        3.04785       -0.55347
O          2.26078        2.88596       -1.93477
C          4.74589        0.36955       -1.54335
N          3.68596        0.18766       -2.50725
H          0.63018       -0.28764        0.64175
H          0.78233        1.28423       -0.11171
H          0.77882        0.27008       -2.36092
H         -0.66433       -0.11232       -1.44508
H          1.72489       -2.00984       -1.82947
H          2.86810       -0.95864       -0.15923
H          2.91216        0.47746        0.83105
H          5.11533       -0.51348       -1.03998
H          5.50025        1.10423       -1.79857
H          3.28631       -0.74799       -2.48534
24 24 24 24 24 24 24 24 24 24 24 24 24 24 24 24 24 24 24 24 24 24 24 24 24 24 24 24 24 24 24 24 24 24 24 24 24 24 24 24 24 24 24 24 24 24 24 24 24 24 24 24 24 24 24 24 24 24 24 24 24 24 24 24 24 24 24
C(CC(C(=O)[O-])[N+])CC1(C(=O)[O-])(CN1)
InChI=1S/C8H14N2O4/c9-5(6(11)12)2-1-3-8(4-10-8)7(13)14/h5,10H,1-4,9H2,(H,11,12)(H,13,14)/p-1/t5-,8-/m0/s1
