20
metacyc CPD0-1961  225.56525576 225.56525576 225.56525576 225.56525576 225.56525576 225.56525576 225.56525576 225.56525576 225.56525576 225.56525576 225.56525576 225.56525576 225.56525576 225.56525576 225.56525576
C          1.12320        0.01344        0.14759
N          2.64207        0.01575        0.18310
O          3.15481        0.00312       -1.18089
C          3.15665        1.27409        0.91538
C          4.67650        1.20078        1.09573
O          5.05196        0.01846        1.80980
C          4.68438       -1.16196        1.08558
C          3.16561       -1.24307        0.90603
H          0.79324        0.91397       -0.37754
H          0.75067        0.00639        1.17557
H          0.79997       -0.88273       -0.38897
H          2.69979        0.72105       -1.66851
H          2.65488        1.28936        1.88926
H          2.85803        2.14517        0.32390
H          5.01624        2.06116        1.68080
H          5.20018        1.22924        0.13328
H          5.03015       -2.02415        1.66448
H          5.20908       -1.17908        0.12339
H          2.66460       -1.26855        1.88011
H          2.87158       -2.11201        0.30881
20 20 20 20 20 20 20 20 20 20 20 20 20 20 20 20 20 20 20 20 20 20 20 20 20 20 20 20 20 20 20 20 20 20 20 20 20 20 20 20 20 20 20 20 20 20 20 20 20 20 20 20 20 20 20
C[N+]1(O)(CCOCC1)
InChI=1S/C5H12NO2/c1-6(7)2-4-8-5-3-6/h7H,2-5H2,1H3/q+1
