21
metacyc CPD0-2528  516.35718872 516.35718872 516.35718872 516.35718872 516.35718872 516.35718872 516.35718872 516.35718872 516.35718872 516.35718872 516.35718872 516.35718872 516.35718872 516.35718872 516.35718872
C          1.05059        0.52014        1.05142
C          2.56216        0.61781        1.13293
O          3.11834       -0.69742        1.15220
C          4.48555       -0.76865        1.22434
C          5.35503        0.31905        1.26971
C          6.73787        0.11864        1.34200
C          7.27752       -1.16674        1.32930
C          6.40226       -2.25393        1.35063
C          5.01747       -2.05841        1.27544
N          8.65030       -1.35194        1.52789
H          0.60342        1.51889        1.04554
H          0.65098       -0.04034        1.90243
H          0.74438       -0.00811        0.14292
H          2.82976        1.15182        2.05223
H          2.92547        1.16793        0.25694
H          4.99631        1.34181        1.26135
H          7.39042        0.98480        1.40931
H          6.78707       -3.26650        1.42326
H          4.35369       -2.91952        1.27029
H          9.21621       -0.57889        1.19116
H          8.99241       -2.24892        1.19909
21 21 21 21 21 21 21 21 21 21 21 21 21 21 21 21 21 21 21 21 21 21 21 21 21 21 21 21 21 21 21 21 21 21 21 21 21 21 21 21 21 21 21 21 21 21 21 21 21 21 21 21 21 21 21 21 21 21
CCOC1(C=CC(=CC=1)N)
InChI=1S/C8H11NO/c1-2-10-8-5-3-7(9)4-6-8/h3-6H,2,9H2,1H3
