23
metacyc CPD0-1449  376.44887296 376.44887296 376.44887296 376.44887296 376.44887296 376.44887296 376.44887296 376.44887296 376.44887296 376.44887296 376.44887296 376.44887296 376.44887296 376.44887296 376.44887296
C          1.02836        0.09643        0.06328
C          2.56435       -0.01746        0.02864
O          3.05098        0.65323       -1.16121
O          2.41350        0.03867       -2.32321
C          3.13564        0.79655        1.20191
C          3.09724       -1.45362        0.12826
C          4.34555       -1.79270       -0.42644
C          4.85090       -3.09369       -0.33283
C          4.12913       -4.07684        0.33616
C          2.90613       -3.75967        0.91474
C          2.39715       -2.46057        0.81678
H          0.71273        1.12542       -0.14727
H          0.61180       -0.18895        1.03455
H          0.56131       -0.53797       -0.69885
H          3.23671       -0.16066       -2.80383
H          2.80442        1.84087        1.14642
H          4.23100        0.82080        1.17310
H          2.82872        0.38760        2.17358
H          4.93940       -1.04003       -0.93925
H          5.81312       -3.33344       -0.77784
H          4.52394       -5.08778        0.40904
H          2.34289       -4.52275        1.44750
H          1.44352       -2.25272        1.29626
23 23 23 23 23 23 23 23 23 23 23 23 23 23 23 23 23 23 23 23 23 23 23 23 23 23 23 23 23 23 23 23 23 23 23 23 23 23 23 23 23 23 23 23 23 23 23 23 23 23 23 23 23 23 23 23 23 23 23 23 23 23 23 23
CC(OO)(C)C1(=CC=CC=C1)
InChI=1S/C9H12O2/c1-9(2,11-10)8-6-4-3-5-7-8/h3-7,10H,1-2H3
