12
metacyc CPD0-1258  319.34467864 319.34467864 319.34467864 319.34467864 319.34467864 319.34467864 319.34467864 319.34467864 319.34467864 319.34467864 319.34467864 319.34467864 319.34467864 319.34467864 319.34467864
C          0.89687        0.04466        0.03486
N          0.32633        0.03027        1.38026
C          2.43184       -0.01219        0.07640
O          2.94569        1.15203        0.74284
C          3.00514       -1.26996        0.74371
N          2.61607       -2.48524        0.04273
H          0.58051        0.97475       -0.44973
H          0.48747       -0.78944       -0.54199
H          2.80360        0.04184       -0.95426
H          2.49352        1.21161        1.60580
H          2.69243       -1.33134        1.79197
H          4.09891       -1.20151        0.76497
12 12 12 12 12 12 12 12 12 12 12 12 12 12 12 12 12 12 12 12 12 12 12 12 12 12 12 12 12 12 12
C([N+])C(O)C[N+]
InChI=1S/C3H10N2O/c4-1-3(6)2-5/h3,6H,1-2,4-5H2/p+2
