19
metacyc CPD0-1490  130.695223072 130.695223072 130.695223072 130.695223072 130.695223072 130.695223072 130.695223072 130.695223072 130.695223072 130.695223072 130.695223072 130.695223072 130.695223072 130.695223072 130.695223072
C          0.90777        0.11326        0.10293
C          2.41018        0.06160        0.13423
C          3.13541        1.26324        0.11779
C          4.52541        1.25026        0.17668
C          5.20430        0.03612        0.24698
C          4.51194       -1.19082        0.26229
C          5.31388       -2.48442        0.28417
O          4.68692       -3.56494        0.01626
O          6.55951       -2.40151        0.53636
C          3.09830       -1.17216        0.19880
N          2.36085       -2.37091        0.37450
H          0.54341        1.13898       -0.01700
H          0.49380       -0.28234        1.03516
H          0.52486       -0.46545       -0.74413
H          2.61839        2.21640        0.07118
H          5.08521        2.18000        0.17204
H          6.29331        0.02824        0.28885
H          3.02364       -3.16340        0.23282
H          1.58585       -2.44747       -0.26705
19 19 19 19 19 19 19 19 19 19 19 19 19 19 19 19 19 19 19 19 19 19 19 19 19 19 19 19 19 19 19 19 19 19 19 19 19 19 19 19 19 19 19 19 19 19 19 19 19 19 19 19
CC1(C=CC=C(C(=O)[O-])C(N)=1)
InChI=1S/C8H9NO2/c1-5-3-2-4-6(7(5)9)8(10)11/h2-4H,9H2,1H3,(H,10,11)/p-1
