26
metacyc CPD0-1397  839.47654664 839.47654664 839.47654664 839.47654664 839.47654664 839.47654664 839.47654664 839.47654664 839.47654664 839.47654664 839.47654664 839.47654664 839.47654664 839.47654664 839.47654664
C          3.57436       -0.61329       -0.90398
C          2.52696        0.02468       -0.00876
C          3.09795        0.84177        1.14413
C          2.06711        1.46759        2.05162
N          0.95937        0.82732        2.23865
N          0.02063        1.50047        3.06072
C         -1.20321        1.05347        3.32556
N         -1.67247       -0.06624        2.83239
N         -1.93768        1.73464        4.07716
N          4.38656        0.95391        1.27358
N          4.93439        1.69672        2.33961
C          6.24299        1.84272        2.53475
N          7.14584        1.30264        1.75412
N          6.62352        2.52715        3.51229
H          3.09072       -1.18708       -1.70069
H          4.21458       -1.29621       -0.33563
H          4.21377        0.14405       -1.36863
H          1.89607       -0.76767        0.40936
H          1.88712        0.68446       -0.60541
H          2.30943        2.45313        2.47737
H          0.20921        2.39631        3.51228
H         -1.10093       -0.62803        2.21687
H         -2.61309       -0.36337        3.06188
H          4.39740        2.17914        3.05388
H          6.85958        0.74548        0.95984
H          8.13083        1.44107        1.94479
26 26 26 26 26 26 26 26 26 26 26 26 26 26 26 26 26 26 26 26 26 26 26 26 26 26 26 26 26 26 26 26 26 26 26 26 26 26 26 26 26 26 26 26 26 26 26 26 26 26 26 26 26 26 26 26 26 26 26 26 26 26 26 26 26 26 26 26 26 26 26 26 26
CCC(C=NNC(N)=[N+])=NNC(N)=[N+]
InChI=1S/C6H14N8/c1-2-4(12-14-6(9)10)3-11-13-5(7)8/h3H,2H2,1H3,(H4,7,8,13)(H4,9,10,14)/p+2
