22
metacyc CPD0-1428  567.57470424 567.57470424 567.57470424 567.57470424 567.57470424 567.57470424 567.57470424 567.57470424 567.57470424 567.57470424 567.57470424 567.57470424 567.57470424 567.57470424 567.57470424
C          2.86242       -0.48054       -1.58906
O          2.40084       -1.79471       -1.89515
C          2.49450       -0.04736       -0.16270
N          1.03170       -0.03870       -0.03657
C          3.07707       -0.96302        0.92893
C          4.58947       -0.98775        0.95555
C          5.32744        0.17183        1.23222
C          6.72349        0.14044        1.22791
C          7.39463       -1.05185        0.96227
C          6.67143       -2.21304        0.70178
C          5.27573       -2.18168        0.69675
H          2.43413        0.20876       -2.32648
H          3.94754       -0.46666       -1.73274
H          1.42882       -1.76623       -1.83756
H          2.84384        0.98031       -0.01310
H          2.68777       -1.98271        0.81444
H          2.73618       -0.62373        1.91806
H          4.82385        1.11053        1.45179
H          7.28853        1.04619        1.43273
H          8.48108       -1.07598        0.95947
H          7.19265       -3.14534        0.49831
H          4.72769       -3.09656        0.48163
22 22 22 22 22 22 22 22 22 22 22 22 22 22 22 22 22 22 22 22 22 22 22 22 22 22 22 22 22 22 22 22 22 22 22 22 22 22 22 22 22 22 22 22 22 22 22 22 22 22 22 22 22 22 22 22 22 22 22 22 22
C(O)C([N+])CC1(C=CC=CC=1)
InChI=1S/C9H13NO/c10-9(7-11)6-8-4-2-1-3-5-8/h1-5,9,11H,6-7,10H2/p+1
