23
metacyc CPD0-1464  32.807572432 32.807572432 32.807572432 32.807572432 32.807572432 32.807572432 32.807572432 32.807572432 32.807572432 32.807572432 32.807572432 32.807572432 32.807572432 32.807572432 32.807572432
C          0.92524       -0.06994       -0.05990
C          2.42130       -0.03515       -0.09545
C          3.10474        1.27425        0.05073
C          4.56540        1.34361       -0.30048
C          5.28580        0.21243       -0.43437
O          6.63941        0.33917       -0.74650
C          7.42096       -0.83500       -0.91122
C          4.62168       -1.11940       -0.24945
O          5.22064       -2.18329       -0.14653
C          3.15106       -1.14557       -0.22345
O          5.23187        2.55565       -0.49180
C          4.49948        3.76896       -0.39726
O          2.46429        2.24497        0.44139
H          0.47900        0.92905       -0.04198
H          0.57419       -0.60711        0.82793
H          0.53578       -0.57539       -0.95078
H          8.42238       -0.52547       -1.22606
H          7.01584       -1.47768       -1.69898
H          7.52753       -1.36816        0.03827
H          2.69763       -2.12933       -0.28773
H          5.16391        4.58270       -0.70368
H          4.20346        3.96107        0.63841
H          3.64185        3.77719       -1.07723
23 23 23 23 23 23 23 23 23 23 23 23 23 23 23 23 23 23 23 23 23 23 23 23 23 23 23 23 23 23 23 23 23 23 23 23 23 23 23 23 23 23 23 23 23 23 23 23 23 23 23 23 23 23 23 23 23 23 23 23 23 23 23 23
CC1(C(C(=C(OC)C(=O)C=1)OC)=O)
InChI=1S/C9H10O4/c1-5-4-6(10)8(12-2)9(13-3)7(5)11/h4H,1-3H3
