16
metacyc CPD0-1467  146.18933656 146.18933656 146.18933656 146.18933656 146.18933656 146.18933656 146.18933656 146.18933656 146.18933656 146.18933656 146.18933656 146.18933656 146.18933656 146.18933656 146.18933656
C          0.95749        0.17795        0.01278
O          0.43311        1.32721        0.06265
O          0.39836       -0.95556        0.00894
C          2.50309        0.14206       -0.04618
C          3.21673        1.28015       -0.02476
C          4.65432        1.28372       -0.10072
C          5.35819        0.14306       -0.11397
C          4.70397       -1.21253       -0.04355
N          5.28347       -2.10210       -1.05663
C          3.15996       -1.21284       -0.15247
H          2.71042        2.24255        0.03754
H          5.14920        2.24913       -0.13562
H          6.44145        0.18161       -0.14860
H          4.97262       -1.64090        0.92985
H          2.77304       -1.86490        0.64221
H          2.84154       -1.66893       -1.09964
16 16 16 16 16 16 16 16 16 16 16 16 16 16 16 16 16 16 16 16 16 16 16 16 16 16 16 16 16 16 16 16 16 16 16 16 16 16 16 16 16 16 16
C([O-])(=O)C1(=CC=CC([N+])C1)
InChI=1S/C7H9NO2/c8-6-3-1-2-5(4-6)7(9)10/h1-3,6H,4,8H2,(H,9,10)
