21
metacyc CPD0-2360  654.01551664 654.01551664 654.01551664 654.01551664 654.01551664 654.01551664 654.01551664 654.01551664 654.01551664 654.01551664 654.01551664 654.01551664 654.01551664 654.01551664 654.01551664
C          3.59099       -0.60960       -0.83122
C          2.42224        0.01323       -0.06288
C          1.63786       -1.05700        0.70012
C          2.88750        1.12326        0.86290
C          2.38854        2.42450        0.70047
C          2.80638        3.45797        1.54194
C          3.72632        3.20508        2.55623
C          4.22875        1.91824        2.73176
C          3.81142        0.88394        1.89203
H          3.22751       -1.35386       -1.54813
H          4.30092       -1.11104       -0.16469
H          4.14137        0.15440       -1.39157
H          1.74146        0.44240       -0.81008
H          2.25038       -1.54848        1.46389
H          1.27428       -1.83120        0.01582
H          0.76810       -0.61871        1.20219
H          1.66863        2.64443       -0.08469
H          2.41178        4.46145        1.40416
H          4.05170        4.00990        3.20963
H          4.94650        1.71776        3.52257
H          4.21611       -0.11317        2.04927
21 21 21 21 21 21 21 21 21 21 21 21 21 21 21 21 21 21 21 21 21 21 21 21 21 21 21 21 21 21 21 21 21 21 21 21 21 21 21 21 21 21 21 21 21 21 21 21 21 21 21 21 21 21 21 21 21 21
CC(C)C1(=CC=CC=C1)
InChI=1S/C9H12/c1-8(2)9-6-4-3-5-7-9/h3-8H,1-2H3
