17
metacyc CPD0-1927  510.88987224 510.88987224 510.88987224 510.88987224 510.88987224 510.88987224 510.88987224 510.88987224 510.88987224 510.88987224 510.88987224 510.88987224 510.88987224 510.88987224 510.88987224
C          2.70708        0.34646       -0.00022
C          2.78704       -1.03381        0.00018
N          1.53575       -1.61337        0.00069
C          0.72083       -0.59070        0.00058
N          1.36474        0.61717        0.00004
C          0.66786        1.83385       -0.00019
N         -0.63824        1.92896        0.00005
C         -1.32615        0.69520        0.00051
N         -2.67507        0.50329        0.00061
C         -2.83230       -0.80804        0.00093
N         -1.63091       -1.47296        0.00110
C         -0.67569       -0.51276        0.00078
H          3.46015        1.12109       -0.00069
H          3.68288       -1.64305        0.00010
H          1.27037        2.75650       -0.00059
H         -3.78021       -1.33002        0.00102
H         -1.48359       -2.47349        0.00132
17 17 17 17 17 17 17 17 17 17 17 17 17 17 17 17 17 17 17 17 17 17 17 17 17 17 17 17 17 17 17 17 17 17 17 17 17 17 17 17 17 17 17 17 17 17
C3(=CN=C1(N(C=NC2(N=CNC1=2))3))
InChI=1S/C7H5N5/c1-2-12-4-11-6-5(7(12)8-1)9-3-10-6/h1-4H,(H,9,10)
