20
metacyc CPDQT-428  369.61914148 369.61914148 369.61914148 369.61914148 369.61914148 369.61914148 369.61914148 369.61914148 369.61914148 369.61914148 369.61914148 369.61914148 369.61914148 369.61914148 369.61914148
C          1.00040        0.00961        0.08136
O          0.46027        0.68106       -1.05240
C          2.49073        0.00965        0.06367
C          3.30474        1.12771        0.07181
N          4.60839        0.71626        0.07547
C          4.67269       -0.65735        0.06590
C          5.78649       -1.50589        0.07435
C          5.55280       -2.88357        0.05939
C          4.25596       -3.38929        0.03336
C          3.15317       -2.52636        0.02807
C          3.35922       -1.13059        0.04793
H          0.59678       -1.00716        0.09154
H          0.63702        0.51894        0.97992
H          0.91763        0.30907       -1.82568
H          3.05626        2.18113        0.08214
H          5.41327        1.32756        0.08889
H          6.79875       -1.11492        0.09506
H          6.39682       -3.56961        0.06884
H          4.09594       -4.46467        0.02071
H          2.14868       -2.93822        0.01104
20 20 20 20 20 20 20 20 20 20 20 20 20 20 20 20 20 20 20 20 20 20 20 20 20 20 20 20 20 20 20 20 20 20 20 20 20 20 20 20 20 20 20 20 20 20 20 20 20 20 20 20 20 20 20
C(O)C1(=CNC2(C=CC=CC1=2))
InChI=1S/C9H9NO/c11-6-7-5-10-9-4-2-1-3-8(7)9/h1-5,10-11H,6H2
