15
metacyc CREATININE  271.90912256 271.90912256 271.90912256 271.90912256 271.90912256 271.90912256 271.90912256 271.90912256 271.90912256 271.90912256 271.90912256 271.90912256 271.90912256 271.90912256 271.90912256
C          1.12949       -0.09301        0.11621
N          2.57154       -0.07026        0.19632
C          3.29392        1.15829       -0.12034
C          4.61465        0.60153       -0.64561
O          5.55017        1.24376       -1.09778
N          4.54924       -0.76222       -0.55878
C          3.33120       -1.15213       -0.13044
N          3.00057       -2.38489       -0.09023
H          0.70796        0.89515        0.32892
H          0.71456       -0.79828        0.84292
H          0.80389       -0.39197       -0.88646
H          3.47177        1.74945        0.78148
H          2.79897        1.74418       -0.89981
H          5.28053       -1.36051       -0.89855
H          3.77834       -2.97263       -0.39098
15 15 15 15 15 15 15 15 15 15 15 15 15 15 15 15 15 15 15 15 15 15 15 15 15 15 15 15 15 15 15 15 15 15 15 15 15 15 15 15
CN1(CC(=O)NC(=N)1)
InChI=1S/C4H7N3O/c1-7-2-3(8)6-4(7)5/h2H2,1H3,(H2,5,6,8)
