13
metacyc CYTOSINE  83.2850304 83.2850304 83.2850304 83.2850304 83.2850304 83.2850304 83.2850304 83.2850304 83.2850304 83.2850304 83.2850304 83.2850304 83.2850304 83.2850304 83.2850304
C         -1.19856       -0.66475        0.01143
N          0.01781       -1.27592        0.00204
C          1.21290       -0.59587        0.02563
O          2.26000       -1.23752        0.02499
N          1.17636        0.77541        0.04234
C          0.02676        1.37858        0.04986
N          0.04489        2.74620        0.06052
C         -1.27245        0.66488        0.03708
H         -2.07410       -1.30374        0.00261
H          0.10336       -2.28359       -0.00967
H          0.96430        3.11441       -0.16648
H         -0.70565        3.22200       -0.42338
H         -2.19994        1.21651        0.05899
13 13 13 13 13 13 13 13 13 13 13 13 13 13 13 13 13 13 13 13 13 13 13 13 13 13 13 13 13 13 13 13 13 13
C1(NC(=O)N=C(N)C=1)
InChI=1S/C4H5N3O/c5-3-1-2-6-4(8)7-3/h1-2H,(H3,5,6,7,8)
