26
metacyc D-CARNITINE  112.2851712 112.2851712 112.2851712 112.2851712 112.2851712 112.2851712 112.2851712 112.2851712 112.2851712 112.2851712 112.2851712 112.2851712 112.2851712 112.2851712 112.2851712
C          0.90224       -0.25592        0.04134
N          2.41146       -0.14883       -0.04059
C          2.86080        1.30194       -0.41322
C          2.32027        1.82497       -1.77219
O          0.88103        1.87996       -1.74759
C          2.82811        3.23307       -2.05806
C          4.34935        3.24481       -2.03882
O          4.89189        2.14783       -2.34824
O          4.85882        4.31478       -1.62319
C          3.01002       -0.45931        1.32310
C          2.95617       -1.13628       -1.05697
H          0.51813        0.59371        0.61285
H          0.65218       -1.19078        0.55351
H          0.48248       -0.29314       -0.96629
H          3.95265        1.28158       -0.36266
H          2.49078        1.93993        0.39832
H          2.59954        1.15178       -2.58886
H          0.61535        2.41036       -2.52262
H          2.42785        3.93586       -1.31713
H          2.47788        3.58020       -3.03833
H          2.62361        0.26590        2.04565
H          4.09994       -0.39152        1.25475
H          2.71367       -1.47267        1.61165
H          2.48186       -0.95915       -2.02462
H          2.71181       -2.14667       -0.71182
H          4.04093       -1.01261       -1.12403
26 26 26 26 26 26 26 26 26 26 26 26 26 26 26 26 26 26 26 26 26 26 26 26 26 26 26 26 26 26 26 26 26 26 26 26 26 26 26 26 26 26 26 26 26 26 26 26 26 26 26 26 26 26 26 26 26 26 26 26 26 26 26 26 26 26 26 26 26 26 26 26 26
C[N+](CC(O)CC(=O)[O-])(C)C
InChI=1S/C7H15NO3/c1-8(2,3)5-6(9)4-7(10)11/h6,9H,4-5H2,1-3H3/t6-/m0/s1
