28
metacyc DIAMINONONANOATE  562.29395232 562.29395232 562.29395232 562.29395232 562.29395232 562.29395232 562.29395232 562.29395232 562.29395232 562.29395232 562.29395232 562.29395232 562.29395232 562.29395232 562.29395232
C          0.81084       -0.26917       -2.29640
C          2.33950       -0.26359       -2.35782
C          2.97879        0.57407       -1.22429
C          4.51601        0.60631       -1.31890
C          5.17961        1.42406       -0.19908
C          6.70874        1.45008       -0.29198
C          7.21808        2.07782       -1.59442
C          8.73960        2.15441       -1.65954
C          9.46848        0.80626       -1.68449
O          8.82743       -0.16760       -2.16520
O         10.64691        0.84426       -1.22586
N          2.46161        1.94784       -1.28609
N          2.77510       -1.66086       -2.28875
H          0.40182        0.73755       -2.43076
H          0.45138       -0.65468       -1.33554
H          0.38790       -0.89399       -3.09140
H          2.64721        0.13774       -3.33208
H          2.69241        0.15340       -0.25183
H          4.79375        1.01101       -2.29862
H          4.91253       -0.41507       -1.27581
H          4.89650        0.99558        0.77031
H          4.81095        2.45661       -0.20839
H          7.09039        0.42881       -0.18167
H          7.09685        2.02475        0.55974
H          6.80984        3.09146       -1.68829
H          6.85852        1.51153       -2.45959
H          9.11305        2.75918       -0.82508
H          9.02070        2.67571       -2.58286
28 28 28 28 28 28 28 28 28 28 28 28 28 28 28 28 28 28 28 28 28 28 28 28 28 28 28 28 28 28 28 28 28 28 28 28 28 28 28 28 28 28 28 28 28 28 28 28 28 28 28 28 28 28 28 28 28 28 28 28 28 28 28 28 28 28 28 28 28 28 28 28 28 28 28 28 28 28 28
CC(C(CCCCCC([O-])=O)[N+])[N+]
InChI=1S/C9H20N2O2/c1-7(10)8(11)5-3-2-4-6-9(12)13/h7-8H,2-6,10-11H2,1H3,(H,12,13)/p+1
