15
metacyc DIETHYLAMINE  522.29449392 522.29449392 522.29449392 522.29449392 522.29449392 522.29449392 522.29449392 522.29449392 522.29449392 522.29449392 522.29449392 522.29449392 522.29449392 522.29449392 522.29449392
C          1.08657       -0.03359        0.01136
C          2.60963       -0.03168       -0.00073
N          3.11963       -0.22449        1.35472
C          4.58041       -0.22825        1.37940
C          5.07610       -0.43096        2.80526
H          0.69930        0.11057       -1.00245
H          0.69348        0.77142        0.64216
H          0.69369       -0.98268        0.39265
H          2.94875        0.91917       -0.43033
H          2.94894       -0.82488       -0.67850
H          4.99496        0.71493        1.00225
H          4.99464       -1.02917        0.75441
H          4.72516        0.37008        3.46531
H          6.17062       -0.43457        2.82915
H          4.72482       -1.38405        3.21604
15 15 15 15 15 15 15 15 15 15 15 15 15 15 15 15 15 15 15 15 15 15 15 15 15 15 15 15 15 15 15 15 15 15 15 15 15 15 15 15
CC[N+]CC
InChI=1S/C4H11N/c1-3-5-4-2/h5H,3-4H2,1-2H3/p+1
