19
metacyc DIFLUOROMETHYLORNITHINE  228.749756736 228.749756736 228.749756736 228.749756736 228.749756736 228.749756736 228.749756736 228.749756736 228.749756736 228.749756736 228.749756736 228.749756736 228.749756736 228.749756736 228.749756736
C          0.93861       -0.03472        0.02352
C          0.50267        1.05632       -0.95086
C         -1.03233        1.11293       -1.05878
C         -1.57167        2.15299       -2.05512
C         -3.09365        2.18205       -2.05791
F         -3.61419        0.93744       -2.26100
F         -3.54463        2.53519       -0.81003
N         -1.04503        3.48829       -1.71913
C         -1.32587        1.90045       -3.55383
O         -1.76082        2.77768       -4.35713
O         -0.71276        0.82953       -3.83818
N          2.39305       -0.07778        0.12974
H          0.57576       -1.01334       -0.30689
H          0.52208        0.15671        1.01782
H          0.94745        0.86260       -1.93281
H          0.89002        2.02319       -0.60789
H         -1.44076        1.31852       -0.05974
H         -1.39863        0.11578       -1.33749
H         -3.55978        2.87312       -2.76721
19 19 19 19 19 19 19 19 19 19 19 19 19 19 19 19 19 19 19 19 19 19 19 19 19 19 19 19 19 19 19 19 19 19 19 19 19 19 19 19 19 19 19 19 19 19 19 19 19 19 19 19
C(CCC(C(F)F)([N+])C(=O)[O-])[N+]
InChI=1S/C6H12F2N2O2/c7-4(8)6(10,5(11)12)2-1-3-9/h4H,1-3,9-10H2,(H,11,12)/p+1
