19
metacyc DIHYDROCOUMARIN  212.501037928 212.501037928 212.501037928 212.501037928 212.501037928 212.501037928 212.501037928 212.501037928 212.501037928 212.501037928 212.501037928 212.501037928 212.501037928 212.501037928 212.501037928
C          2.44503       -0.66441        0.07766
C          1.25883       -1.40012        0.01000
C          0.02829       -0.74032       -0.06721
C          0.01346        0.65329       -0.10639
C          1.18841        1.39661       -0.02836
C          2.41058        0.73164        0.06907
O         -1.18270        1.36804       -0.29862
C         -2.40594        0.71224       -0.28736
C         -2.39638       -0.64510        0.36034
C         -1.25931       -1.49400       -0.17076
O         -3.43293        1.25205       -0.68480
H          3.40039       -1.18059        0.13107
H          1.30437       -2.48663        0.00965
H          1.15522        2.48214       -0.05732
H          3.33377        1.29870        0.12176
H         -3.35083       -1.14201        0.15391
H         -2.32370       -0.49929        1.44508
H         -1.43295       -1.75559       -1.22138
H         -1.20665       -2.42352        0.40749
19 19 19 19 19 19 19 19 19 19 19 19 19 19 19 19 19 19 19 19 19 19 19 19 19 19 19 19 19 19 19 19 19 19 19 19 19 19 19 19 19 19 19 19 19 19 19 19 19 19 19 19
C1(C=C2(C(=CC=1)OC(CC2)=O))
InChI=1S/C9H8O2/c10-9-6-5-7-3-1-2-4-8(7)11-9/h1-4H,5-6H2
