9
metacyc DIMETHYLAMINE  339.14211144 339.14211144 339.14211144 339.14211144 339.14211144 339.14211144 339.14211144 339.14211144 339.14211144 339.14211144 339.14211144 339.14211144 339.14211144 339.14211144 339.14211144
C          1.05552       -0.04036       -0.07051
N          2.51083       -0.02589       -0.08976
C          3.01862        0.79365       -1.18017
H          0.68256       -0.65942        0.75316
H          0.62801       -0.45463       -0.99093
H          0.62801        0.95895        0.07151
H          4.11440        0.79857       -1.18671
H          2.70211        1.84011       -1.10088
H          2.70210        0.42653       -2.16332
9 9 9 9 9 9 9 9 9 9 9 9 9 9 9 9 9 9 9 9 9 9
C[N+]C
InChI=1S/C2H7N/c1-3-2/h3H,1-2H3/p+1
