21
metacyc DIPROPYLETHER  501.14148696 501.14148696 501.14148696 501.14148696 501.14148696 501.14148696 501.14148696 501.14148696 501.14148696 501.14148696 501.14148696 501.14148696 501.14148696 501.14148696 501.14148696
C          0.90616       -0.00181        0.03051
C          2.42165       -0.05146       -0.05521
C          2.88755       -0.78091       -1.30789
O          4.31484       -0.79188       -1.32738
C          4.81300       -1.46489       -2.48300
C          6.33535       -1.44255       -2.44369
C          6.93528       -2.14617       -3.64821
H          0.59262        0.52619        0.93629
H          0.48219       -1.01075        0.06096
H          0.48202        0.52201       -0.83238
H          2.82899       -0.54720        0.83400
H          2.82923        0.96671       -0.04718
H          2.51491       -0.26954       -2.20279
H          2.51530       -1.81180       -1.30468
H          4.45135       -0.95706       -3.38458
H          4.45087       -2.49943       -2.48654
H          6.68766       -1.91750       -1.52024
H          6.68802       -0.40501       -2.40383
H          6.62375       -3.19535       -3.68451
H          8.02800       -2.11812       -3.60044
H          6.62297       -1.66344       -4.57968
21 21 21 21 21 21 21 21 21 21 21 21 21 21 21 21 21 21 21 21 21 21 21 21 21 21 21 21 21 21 21 21 21 21 21 21 21 21 21 21 21 21 21 21 21 21 21 21 21 21 21 21 21 21 21 21 21 21
CCCOCCC
InChI=1S/C6H14O/c1-3-5-7-6-4-2/h3-6H2,1-2H3
