19
metacyc ENOL-PHENYLPYRUVATE  2.9948283316 2.9948283316 2.9948283316 2.9948283316 2.9948283316 2.9948283316 2.9948283316 2.9948283316 2.9948283316 2.9948283316 2.9948283316 2.9948283316 2.9948283316 2.9948283316 2.9948283316
C          0.93575        0.38890       -0.36916
O          0.48790        1.48100        0.11015
O          0.34458       -0.62332       -0.82291
C          2.50388        0.37322       -0.35736
O          3.08014        1.53466        0.15768
C          3.23219       -0.65837       -0.80452
C          4.69427       -0.66328       -0.79792
C          5.39280       -1.15466        0.30897
C          6.78800       -1.10676        0.33728
C          7.48967       -0.56829       -0.74166
C          6.79782       -0.08388       -1.85162
C          5.40303       -0.13162       -1.87952
H          2.26992        2.05910        0.38194
H          2.73850       -1.54315       -1.19689
H          4.84409       -1.54982        1.16014
H          7.32098       -1.47146        1.20980
H          8.57343       -0.51181       -0.71061
H          7.33777        0.34909       -2.68811
H          4.86122        0.26972       -2.73252
19 19 19 19 19 19 19 19 19 19 19 19 19 19 19 19 19 19 19 19 19 19 19 19 19 19 19 19 19 19 19 19 19 19 19 19 19 19 19 19 19 19 19 19 19 19 19 19 19 19 19 19
C([O-])(=O)C(O)=CC1(C=CC=CC=1)
InChI=1S/C9H8O3/c10-8(9(11)12)6-7-4-2-1-3-5-7/h1-6,10H,(H,11,12)/p-1/b8-6-
