8
metacyc ETHANAMINE  307.845766336 307.845766336 307.845766336 307.845766336 307.845766336 307.845766336 307.845766336 307.845766336 307.845766336 307.845766336 307.845766336 307.845766336 307.845766336 307.845766336 307.845766336
C          1.06243       -0.06611        0.05774
C          2.57944       -0.06954        0.05623
N          3.07571       -1.32226       -0.49461
H          0.68751        0.87543        0.47176
H          0.66410       -0.88435        0.66733
H          0.66410       -0.16997       -0.95730
H          2.95610        0.05284        1.07636
H          2.95610        0.76496       -0.54313
8 8 8 8 8 8 8 8 8 8 8 8 8 8 8 8 8 8 8
CC[N+]
InChI=1S/C2H7N/c1-2-3/h2-3H2,1H3/p+1
