6
metacyc ETHYLENE-CMPD  253.485481056 253.485481056 253.485481056 253.485481056 253.485481056 253.485481056 253.485481056 253.485481056 253.485481056 253.485481056 253.485481056 253.485481056 253.485481056 253.485481056 253.485481056
C          0.93343       -0.00575        0.06121
C          2.26922       -0.00575        0.06121
H          0.37355        0.33627       -0.80358
H          0.37355       -0.34776        0.92599
H          2.82911        0.33627       -0.80358
H          2.82911       -0.34776        0.92599
6 6 6 6 6 6 6 6 6 6 6 6 6
C=C
InChI=1S/C2H4/c1-2/h1-2H2
