22
metacyc ETHYL-2-METHYLACETOACETATE  64.0296348 64.0296348 64.0296348 64.0296348 64.0296348 64.0296348 64.0296348 64.0296348 64.0296348 64.0296348 64.0296348 64.0296348 64.0296348 64.0296348 64.0296348
C          3.77359        2.06120        1.71223
C          3.03124        1.00345        0.90937
O          3.31730       -0.27579        1.49031
C          4.47902       -0.85565        1.06975
O          5.09415       -0.54219        0.06198
C          4.92166       -1.89747        2.06334
C          4.38631       -3.28193        1.72453
C          6.42552       -1.89789        2.23847
C          7.31009       -2.31326        1.09133
O          6.92658       -1.57871        3.31986
H          3.57515        3.06465        1.32746
H          4.85493        1.88360        1.69147
H          3.47255        2.01822        2.76517
H          3.30107        1.04268       -0.15208
H          1.95210        1.16377        0.98499
H          4.51170       -1.60885        3.04010
H          4.71850       -3.62167        0.73837
H          3.29078       -3.28569        1.72100
H          4.72433       -4.01720        2.46457
H          6.74319       -2.46015        0.16857
H          7.80671       -3.25079        1.34652
H          8.05308       -1.52983        0.91563
22 22 22 22 22 22 22 22 22 22 22 22 22 22 22 22 22 22 22 22 22 22 22 22 22 22 22 22 22 22 22 22 22 22 22 22 22 22 22 22 22 22 22 22 22 22 22 22 22 22 22 22 22 22 22 22 22 22 22 22 22
CCOC(=O)C(C)C(C)=O
InChI=1S/C7H12O3/c1-4-10-7(9)5(2)6(3)8/h5H,4H2,1-3H3/t5-/m1/s1
