14
metacyc ETHYLACETIMIDATE  278.3161236 278.3161236 278.3161236 278.3161236 278.3161236 278.3161236 278.3161236 278.3161236 278.3161236 278.3161236 278.3161236 278.3161236 278.3161236 278.3161236 278.3161236
C          0.94556        0.00922       -0.05991
C          2.46024       -0.05587       -0.08734
O          2.96973        1.18470        0.43507
C          4.28375        1.41932        0.53390
C          5.31585        0.42484        0.11504
N          4.64483        2.52607        1.00004
H          0.50847       -0.91461       -0.44901
H          0.58490        0.85143       -0.65968
H          0.58491        0.16853        0.96170
H          2.80474       -0.18717       -1.11821
H          2.80476       -0.88511        0.53909
H          4.89606       -0.50184       -0.27505
H          5.94503        0.17141        0.97440
H          5.94468        0.86252       -0.66713
14 14 14 14 14 14 14 14 14 14 14 14 14 14 14 14 14 14 14 14 14 14 14 14 14 14 14 14 14 14 14 14 14 14 14 14 14
CCOC(C)=[N+]
InChI=1S/C4H9NO/c1-3-6-4(2)5/h5H,3H2,1-2H3/p+1
