27
metacyc ETHYL-S-3-HYDROXYHEXANOATE  216.72253912 216.72253912 216.72253912 216.72253912 216.72253912 216.72253912 216.72253912 216.72253912 216.72253912 216.72253912 216.72253912 216.72253912 216.72253912 216.72253912 216.72253912
C          0.90100        0.11420        0.10499
C          2.42042        0.08094        0.04819
C          2.98611        1.41161       -0.45206
C          4.51829        1.39842       -0.50777
O          4.98502        0.35293       -1.35883
C          5.10749        2.74178       -0.92786
C          4.73869        3.12152       -2.33824
O          4.51486        2.31790       -3.23478
O          4.81144        4.47282       -2.48304
C          4.89858        4.93882       -3.83629
C          6.36479        4.95790       -4.22528
H          0.51454       -0.84538        0.45602
H          0.47923        0.31218       -0.88556
H          0.55323        0.89547        0.78897
H          2.73281       -0.73480       -0.61322
H          2.81564       -0.13986        1.04690
H          2.65405        2.22253        0.20807
H          2.57265        1.60975       -1.44793
H          4.89941        1.16903        0.49373
H          4.68984        0.56199       -2.27056
H          6.20276        2.69493       -0.90051
H          4.76934        3.52416       -0.23735
H          4.48720        5.95265       -3.86545
H          4.30599        4.32512       -4.52468
H          6.93143        5.58957       -3.53014
H          6.50378        5.33616       -5.24088
H          6.79925        3.95533       -4.15782
27 27 27 27 27 27 27 27 27 27 27 27 27 27 27 27 27 27 27 27 27 27 27 27 27 27 27 27 27 27 27 27 27 27 27 27 27 27 27 27 27 27 27 27 27 27 27 27 27 27 27 27 27 27 27 27 27 27 27 27 27 27 27 27 27 27 27 27 27 27 27 27 27 27 27 27
CCCC(O)CC(=O)OCC
InChI=1S/C8H16O3/c1-3-5-7(9)6-8(10)11-4-2/h7,9H,3-6H2,1-2H3/t7-/m0/s1
