24
metacyc ETHYL-2R-METHYL-3S-HYDROXYBUTANOATE  116.422661856 116.422661856 116.422661856 116.422661856 116.422661856 116.422661856 116.422661856 116.422661856 116.422661856 116.422661856 116.422661856 116.422661856 116.422661856 116.422661856 116.422661856
C          3.65825        1.47432        1.88847
C          2.99235        0.51169        0.92004
O          3.28745       -0.82118        1.35863
C          4.40737       -1.37805        0.82642
O          5.00629       -0.97466       -0.16450
C          4.86518       -2.53251        1.69117
C          4.30798       -3.83809        1.13516
C          6.40117       -2.53632        1.79821
C          6.96644       -1.24194        2.38024
O          6.81271       -3.61339        2.64514
H          3.46338        2.51284        1.61550
H          4.74116        1.31057        1.91363
H          3.29408        1.29813        2.90724
H          3.31584        0.69478       -0.10993
H          1.90436        0.63726        0.95249
H          4.45493       -2.39693        2.69989
H          4.68369       -4.03054        0.12033
H          3.21544       -3.80086        1.07076
H          4.57748       -4.68477        1.76295
H          6.84683       -2.70979        0.81386
H          6.54985       -1.04220        3.37497
H          6.76933       -0.37998        1.74126
H          8.05111       -1.33013        2.50764
H          6.53729       -3.41718        3.55250
24 24 24 24 24 24 24 24 24 24 24 24 24 24 24 24 24 24 24 24 24 24 24 24 24 24 24 24 24 24 24 24 24 24 24 24 24 24 24 24 24 24 24 24 24 24 24 24 24 24 24 24 24 24 24 24 24 24 24 24 24 24 24 24 24 24 24
CCOC(=O)C(C)C(C)O
InChI=1S/C7H14O3/c1-4-10-7(9)5(2)6(3)8/h5-6,8H,4H2,1-3H3/t5-,6+/m1/s1
