9
metacyc ETOH  76.093253216 76.093253216 76.093253216 76.093253216 76.093253216 76.093253216 76.093253216 76.093253216 76.093253216 76.093253216 76.093253216 76.093253216 76.093253216 76.093253216 76.093253216
C          1.06371       -0.04896       -0.06384
C          2.57829       -0.05352       -0.05819
O          3.05853       -1.35888        0.22870
H          0.67767        0.94672       -0.29934
H          0.67204       -0.35712        0.91114
H          0.67906       -0.76136       -0.80104
H          2.97011        0.63801        0.69385
H          2.96567        0.24511       -1.03660
H          2.71732       -1.61104        1.10368
9 9 9 9 9 9 9 9 9 9 9 9 9 9 9 9 9 9 9 9 9 9
CCO
InChI=1S/C2H6O/c1-2-3/h3H,2H2,1H3
