20
metacyc FMPP  255.30284748 255.30284748 255.30284748 255.30284748 255.30284748 255.30284748 255.30284748 255.30284748 255.30284748 255.30284748 255.30284748 255.30284748 255.30284748 255.30284748 255.30284748
C          1.00783        0.01388        0.09666
F          0.53922        1.29466        0.09126
C          2.49625       -0.01107        0.10678
C          3.36651        1.06949        0.10798
N          4.65786        0.59807        0.09737
C          4.63527       -0.76568        0.08399
C          3.32166       -1.16804        0.09866
C          3.05622       -2.58427        0.08227
O          1.93233       -3.07392        0.09235
N          4.21028       -3.34509        0.04691
C          5.48527       -2.81915        0.00690
N          6.50345       -3.71270       -0.06949
N          5.74344       -1.54051        0.03992
H          0.61775       -0.48236       -0.79702
H          0.60378       -0.48136        0.98416
H          3.16835        2.13411        0.10571
H          5.49950        1.15646        0.08378
H          4.07339       -4.33952       -0.00767
H          6.37060       -4.62824        0.33510
H          7.40581       -3.29743        0.14073
20 20 20 20 20 20 20 20 20 20 20 20 20 20 20 20 20 20 20 20 20 20 20 20 20 20 20 20 20 20 20 20 20 20 20 20 20 20 20 20 20 20 20 20 20 20 20 20 20 20 20 20 20 20 20
C(F)C1(=CNC2(=C1C(=O)NC(N)=N2))
InChI=1S/C7H7FN4O/c8-1-3-2-10-5-4(3)6(13)12-7(9)11-5/h2H,1H2,(H4,9,10,11,12,13)
