29
metacyc GAMMA-GLUTAMYL-PUTRESCINE  385.389679296 385.389679296 385.389679296 385.389679296 385.389679296 385.389679296 385.389679296 385.389679296 385.389679296 385.389679296 385.389679296 385.389679296 385.389679296 385.389679296 385.389679296
C          0.85964       -2.02281        1.54545
N          0.30582       -0.68120        1.41077
C          2.38721       -2.01227        1.52432
C          2.97238       -1.51045        0.19620
C          4.49900       -1.50080        0.20142
N          5.06991       -2.83083        0.23328
C          6.43850       -2.99586        0.28982
O          7.23943       -2.07628        0.15083
C          6.87083       -4.42441        0.54893
C          7.02070       -4.74367        2.03840
C          5.74028       -4.60891        2.86849
N          4.67549       -5.46341        2.32485
C          5.91636       -5.00181        4.35680
O          6.82740       -5.83866        4.61751
O          5.13720       -4.39986        5.15691
H          0.47431       -2.65217        0.73647
H          0.51141       -2.45388        2.48968
H          2.72917       -3.03590        1.71450
H          2.76526       -1.39721        2.35015
H          2.62740       -0.48747        0.00912
H          2.60372       -2.13338       -0.62869
H          4.88135       -0.93990        1.06237
H          4.86897       -1.00690       -0.70442
H          4.50969       -3.59700        0.59306
H          7.83328       -4.57224        0.04408
H          6.16753       -5.11343        0.06693
H          7.78517       -4.08524        2.47045
H          7.41671       -5.76460        2.12121
H          5.39732       -3.56871        2.84689
29 29 29 29 29 29 29 29 29 29 29 29 29 29 29 29 29 29 29 29 29 29 29 29 29 29 29 29 29 29 29 29 29 29 29 29 29 29 29 29 29 29 29 29 29 29 29 29 29 29 29 29 29 29 29 29 29 29 29 29 29 29 29 29 29 29 29 29 29 29 29 29 29 29 29 29 29 29 29 29 29 29
C([N+])CCCNC(=O)CCC([N+])C(=O)[O-]
InChI=1S/C9H19N3O3/c10-5-1-2-6-12-8(13)4-3-7(11)9(14)15/h7H,1-6,10-11H2,(H,12,13)(H,14,15)/p+1/t7-/m0/s1
