28
metacyc GAMMA-GLUTAMYL-GAMMA-AMINOBUTYRALDEH  106.976194016 106.976194016 106.976194016 106.976194016 106.976194016 106.976194016 106.976194016 106.976194016 106.976194016 106.976194016 106.976194016 106.976194016 106.976194016 106.976194016 106.976194016
C          0.98079        0.21153        2.61628
H          0.52156        0.76634        3.45291
O          0.27718       -0.31482        1.75905
C          2.48844        0.17819        2.62782
C          3.06406       -0.64000        1.47315
C          4.58835       -0.63014        1.45680
N          5.16917       -1.31898        2.58852
C          6.53699       -1.34072        2.76687
O          7.33609       -0.92310        1.93408
C          6.97062       -1.91728        4.09894
C          7.11423       -0.85235        5.18870
C          5.82849       -0.09053        5.52557
N          4.76993       -1.01906        5.94702
C          5.99410        0.94958        6.66259
O          6.91123        0.72437        7.50580
O          5.20218        1.93588        6.59032
H          2.79049       -0.24038        3.59254
H          2.84140        1.21380        2.57878
H          2.70203       -0.22566        0.52360
H          2.69543       -1.67185        1.52726
H          4.97035        0.39732        1.44323
H          4.95383       -1.12537        0.54933
H          4.59855       -1.50660        3.40624
H          7.93524       -2.41538        3.94275
H          6.27111       -2.70325        4.40562
H          7.87791       -0.12589        4.88030
H          7.50837       -1.34460        6.08758
H          5.48097        0.45250        4.64108
28 28 28 28 28 28 28 28 28 28 28 28 28 28 28 28 28 28 28 28 28 28 28 28 28 28 28 28 28 28 28 28 28 28 28 28 28 28 28 28 28 28 28 28 28 28 28 28 28 28 28 28 28 28 28 28 28 28 28 28 28 28 28 28 28 28 28 28 28 28 28 28 28 28 28 28 28 28 28
[CH](=O)CCCNC(=O)CCC([N+])C(=O)[O-]
InChI=1S/C9H16N2O4/c10-7(9(14)15)3-4-8(13)11-5-1-2-6-12/h6-7H,1-5,10H2,(H,11,13)(H,14,15)/t7-/m0/s1
