25
metacyc GAMMA-BUTYROBETAINE  271.4445312 271.4445312 271.4445312 271.4445312 271.4445312 271.4445312 271.4445312 271.4445312 271.4445312 271.4445312 271.4445312 271.4445312 271.4445312 271.4445312 271.4445312
C          0.99978       -0.11612        0.10331
N          2.50918       -0.05899        0.04687
C          3.00478        1.32918       -0.42931
C          2.48617        1.70860       -1.82184
C          3.04811        3.05581       -2.26772
C          4.57791        3.04340       -2.25720
O          5.10157        1.90423       -2.41850
O          5.10639        4.14898       -1.97945
C          3.07664       -0.28382        1.44347
C          3.05642       -1.14410       -0.87266
H          0.64130        0.72595        0.70296
H          0.70610       -1.06299        0.56644
H          0.59764       -0.06816       -0.91165
H          4.09512        1.28982       -0.36265
H          2.65081        2.05742        0.31100
H          1.39380        1.78140       -1.82054
H          2.75251        0.95010       -2.56511
H          2.67982        3.84656       -1.60299
H          2.70576        3.28805       -3.28208
H          2.70287        0.50582        2.10226
H          4.16911       -0.25595        1.38958
H          2.74089       -1.26248        1.80042
H          2.58185       -1.06035       -1.85289
H          2.80547       -2.11585       -0.43521
H          4.14147       -1.03036       -0.94759
25 25 25 25 25 25 25 25 25 25 25 25 25 25 25 25 25 25 25 25 25 25 25 25 25 25 25 25 25 25 25 25 25 25 25 25 25 25 25 25 25 25 25 25 25 25 25 25 25 25 25 25 25 25 25 25 25 25 25 25 25 25 25 25 25 25 25 25 25 25
C[N+](CCCC([O-])=O)(C)C
InChI=1S/C7H15NO2/c1-8(2,3)6-4-5-7(9)10/h4-6H2,1-3H3
