15
metacyc GLUTARIMIDE  54.885050928 54.885050928 54.885050928 54.885050928 54.885050928 54.885050928 54.885050928 54.885050928 54.885050928 54.885050928 54.885050928 54.885050928 54.885050928 54.885050928 54.885050928
C          0.76125        1.23224       -0.04837
C         -0.71569        1.25301        0.25912
C         -1.39810        0.00612       -0.27576
C         -0.71473       -1.23685        0.26630
C          0.76256       -1.21759       -0.04318
N          1.37700        0.00801        0.00592
O          1.39855       -2.23705       -0.29440
O          1.39618        2.25176       -0.30701
H         -1.15856        2.14106       -0.20410
H         -0.83871        1.33557        1.34538
H         -1.35053        0.00382       -1.37242
H         -2.45655        0.00637        0.00668
H         -1.15680       -2.12771       -0.19401
H         -0.83827       -1.31550        1.35174
H          2.36164        0.00799       -0.22061
15 15 15 15 15 15 15 15 15 15 15 15 15 15 15 15 15 15 15 15 15 15 15 15 15 15 15 15 15 15 15 15 15 15 15 15 15 15 15 15
C1(CCCC(N1)=O)=O
InChI=1S/C5H7NO2/c7-4-2-1-3-5(8)6-4/h1-3H2,(H,6,7,8)
