3
metacyc HCN  162.678631184 162.678631184 162.678631184 162.678631184 162.678631184 162.678631184 162.678631184 162.678631184 162.678631184 162.678631184 162.678631184 162.678631184 162.678631184 162.678631184 162.678631184
C          0.97914       -0.01162       -0.06139
N          2.13914       -0.01162       -0.06139
H         -0.08586       -0.01162       -0.06139
3 3 3 3
C#N
InChI=1S/CHN/c1-2/h1H
