19
metacyc HEXANAL  400.3395548 400.3395548 400.3395548 400.3395548 400.3395548 400.3395548 400.3395548 400.3395548 400.3395548 400.3395548 400.3395548 400.3395548 400.3395548 400.3395548 400.3395548
C          0.91268       -0.04581       -0.03834
C          2.43272       -0.06267       -0.05268
C          2.97372       -1.07262       -1.06468
C          4.50276       -1.08227       -1.07373
C          5.04837       -2.08837       -2.08167
C          6.55763       -2.11750       -2.11058
H          6.99480       -2.83344       -2.82780
O          7.28402       -1.41951       -1.41117
H          0.54903        0.68346        0.69235
H          0.51189       -1.02762        0.23309
H          0.51408        0.22916       -1.02005
H          2.79887       -0.30865        0.95086
H          2.80095        0.94093       -0.29537
H          2.60145       -0.82542       -2.06624
H          2.60095       -2.07472       -0.81924
H          4.87638       -1.32517       -0.07119
H          4.87680       -0.07928       -1.31438
H          4.70433       -1.84343       -3.09230
H          4.70413       -3.09943       -1.83874
19 19 19 19 19 19 19 19 19 19 19 19 19 19 19 19 19 19 19 19 19 19 19 19 19 19 19 19 19 19 19 19 19 19 19 19 19 19 19 19 19 19 19 19 19 19 19 19 19 19 19 19
CCCCC[CH]=O
InChI=1S/C6H12O/c1-2-3-4-5-6-7/h6H,2-5H2,1H3
