17
metacyc HIS  146.44039748 146.44039748 146.44039748 146.44039748 146.44039748 146.44039748 146.44039748 146.44039748 146.44039748 146.44039748 146.44039748 146.44039748 146.44039748 146.44039748 146.44039748
C         -0.47050        0.04509       -0.78723
N          0.21897        1.06870       -0.21115
C          0.79176        0.58661        0.92980
N          0.49928       -0.67960        1.12061
C         -0.30529       -1.03412        0.05526
C         -0.83071       -2.42685       -0.09987
C         -2.35046       -2.53014       -0.02160
C         -3.04987       -1.87827       -1.23409
O         -2.54422       -2.09849       -2.37575
O         -4.04874       -1.15030       -0.94927
N         -2.74830       -3.94878       -0.02091
H         -1.02038        0.15580       -1.71376
H          0.29367        2.00907       -0.56960
H          1.40679        1.19892        1.57379
H         -0.38815       -3.04172        0.69814
H         -0.44846       -2.83934       -1.04279
H         -2.71603       -2.07314        0.90461
17 17 17 17 17 17 17 17 17 17 17 17 17 17 17 17 17 17 17 17 17 17 17 17 17 17 17 17 17 17 17 17 17 17 17 17 17 17 17 17 17 17 17 17 17 17
C1(NC=NC=1CC(C(=O)[O-])[N+])
InChI=1S/C6H9N3O2/c7-5(6(10)11)1-4-2-8-3-9-4/h2-3,5H,1,7H2,(H,8,9)(H,10,11)/t5-/m0/s1
