17
metacyc HISTIDINAL  408.6058836 408.6058836 408.6058836 408.6058836 408.6058836 408.6058836 408.6058836 408.6058836 408.6058836 408.6058836 408.6058836 408.6058836 408.6058836 408.6058836 408.6058836
C          0.49471       -0.29006       -0.71238
N          0.59982        0.93271       -0.11192
C         -0.16895        0.90145        1.01653
N         -0.75754       -0.26315        1.16765
C         -0.34380       -1.02409        0.09815
C         -0.80524       -2.43268       -0.06354
C         -2.32569       -2.55154       -0.06926
C         -2.95319       -1.88027       -1.27280
H         -4.01307       -1.59850       -1.14439
O         -2.39650       -1.69509       -2.35211
N         -2.73048       -3.95616       -0.12687
H          1.00242       -0.52741       -1.63710
H          1.14517        1.71811       -0.43907
H         -0.25509        1.74992        1.68269
H         -0.39371       -3.01524        0.77127
H         -0.37712       -2.85494       -0.98183
H         -2.75529       -2.09368        0.82805
17 17 17 17 17 17 17 17 17 17 17 17 17 17 17 17 17 17 17 17 17 17 17 17 17 17 17 17 17 17 17 17 17 17 17 17 17 17 17 17 17 17 17 17 17 17
C1(NC=NC=1CC([CH]=O)[N+])
InChI=1S/C6H9N3O/c7-5(3-10)1-6-2-8-4-9-6/h2-5H,1,7H2,(H,8,9)/p+1/t5-/m0/s1
