15
metacyc HISTAMINE  521.322818496 521.322818496 521.322818496 521.322818496 521.322818496 521.322818496 521.322818496 521.322818496 521.322818496 521.322818496 521.322818496 521.322818496 521.322818496 521.322818496 521.322818496
C         -1.11701       -0.08120        0.01157
C         -0.38851        1.08936        0.00289
N          0.92283        0.68060       -0.00443
C          0.92988       -0.68480        0.00944
N         -0.28847       -1.17213        0.02237
C         -0.80262        2.51992       -0.00861
C         -0.96973        3.07230        1.40646
N         -1.34813        4.47909        1.35260
H         -2.19361       -0.19685        0.01076
H          1.74135        1.27372       -0.02103
H          1.84433       -1.26296        0.00735
H         -1.74713        2.61428       -0.55971
H         -0.05866        3.11063       -0.55892
H         -0.03502        2.97738        1.97013
H         -1.73802        2.51381        1.95218
15 15 15 15 15 15 15 15 15 15 15 15 15 15 15 15 15 15 15 15 15 15 15 15 15 15 15 15 15 15 15 15 15 15 15 15 15 15 15 15
C1(=C(NC=N1)CC[N+])
InChI=1S/C5H9N3/c6-2-1-5-3-7-4-8-5/h3-4H,1-2,6H2,(H,7,8)/p+1
