25
metacyc HOMOARGININE  426.96460616 426.96460616 426.96460616 426.96460616 426.96460616 426.96460616 426.96460616 426.96460616 426.96460616 426.96460616 426.96460616 426.96460616 426.96460616 426.96460616 426.96460616
C         -0.74661       -1.71733       -0.12928
C         -1.47806       -0.77887       -1.13184
C         -2.40804        0.20109       -0.40828
C         -1.67551        1.15174        0.55813
C         -2.62663        2.01179        1.38641
C         -3.52665        1.16585        2.27256
N         -4.38747        2.04340        3.07602
C         -5.32028        1.60474        3.88462
N         -6.00910        2.45762        4.49518
N         -5.59120        0.34111        4.09853
N         -0.51311       -0.03851       -1.94793
O         -1.37996       -1.90934        0.96202
O          0.35452       -2.21208       -0.49023
H         -2.07737       -1.41721       -1.79177
H         -3.15560       -0.39178        0.13010
H         -2.97103        0.79598       -1.13807
H         -1.01057        1.81302       -0.00855
H         -1.03585        0.59037        1.24884
H         -3.22991        2.64686        0.72739
H         -2.03512        2.68939        2.01525
H         -2.93833        0.54029        2.95083
H         -4.18681        0.53022        1.67628
H         -4.29920        3.05310        3.01435
H         -5.07228       -0.40386        3.65331
H         -6.33325        0.10167        4.74141
25 25 25 25 25 25 25 25 25 25 25 25 25 25 25 25 25 25 25 25 25 25 25 25 25 25 25 25 25 25 25 25 25 25 25 25 25 25 25 25 25 25 25 25 25 25 25 25 25 25 25 25 25 25 25 25 25 25 25 25 25 25 25 25 25 25 25 25 25 25
C(C(CCCCNC(=[N+])N)[N+])(=O)[O-]
InChI=1S/C7H16N4O2/c8-5(6(12)13)3-1-2-4-11-7(9)10/h5H,1-4,8H2,(H,12,13)(H4,9,10,11)/p+1/t5-/m0/s1
