18
metacyc HYDRPHENYLAC-CPD  190.40953048 190.40953048 190.40953048 190.40953048 190.40953048 190.40953048 190.40953048 190.40953048 190.40953048 190.40953048 190.40953048 190.40953048 190.40953048 190.40953048 190.40953048
C          2.93817        0.67207       -1.05600
H          2.56192        0.26146       -2.00974
O          3.58101        1.71778       -1.03392
C          2.57565       -0.10807        0.18089
C          3.12222       -1.51271        0.15127
C          4.50565       -1.73415        0.06208
C          5.01881       -3.03337        0.04004
C          4.14726       -4.11355        0.11632
O          4.60383       -5.39777        0.08773
C          2.77669       -3.91500        0.22427
C          2.26229       -2.61671        0.24155
H          1.48208       -0.11395        0.24935
H          2.95739        0.41375        1.06533
H          5.19565       -0.89267        0.01162
H          6.09215       -3.17851       -0.03027
H          5.56477       -5.38177       -0.05104
H          2.10935       -4.76971        0.29555
H          1.18718       -2.48008        0.33052
18 18 18 18 18 18 18 18 18 18 18 18 18 18 18 18 18 18 18 18 18 18 18 18 18 18 18 18 18 18 18 18 18 18 18 18 18 18 18 18 18 18 18 18 18 18 18 18 18
[CH](=O)CC1(C=CC(O)=CC=1)
InChI=1S/C8H8O2/c9-6-5-7-1-3-8(10)4-2-7/h1-4,6,10H,5H2
