2
metacyc HYDROGEN-MOLECULE  103.563384712 103.563384712 103.563384712 103.563384712 103.563384712 103.563384712 103.563384712 103.563384712 103.563384712 103.563384712 103.563384712 103.563384712 103.563384712 103.563384712 103.563384712
H          1.08301       -0.05763       -0.05207
H          1.79101       -0.05763       -0.05207
2
[HH]
InChI=1S/H2/h1H
