15
metacyc HYDROXYAMINOBENZENE  303.33096256 303.33096256 303.33096256 303.33096256 303.33096256 303.33096256 303.33096256 303.33096256 303.33096256 303.33096256 303.33096256 303.33096256 303.33096256 303.33096256 303.33096256
C         -1.40919       -0.04127        0.00273
C         -0.76069        1.19150        0.00072
C          0.63564        1.24796        0.00933
C          1.39892        0.07641        0.04752
C          0.73403       -1.15680        0.02485
C         -0.66195       -1.21667        0.00944
N          2.81177        0.09845       -0.01109
O          3.48629        1.31266        0.11416
H         -2.49493       -0.08521       -0.00843
H         -1.33909        2.11145       -0.01035
H          1.12172        2.21934        0.00644
H          1.30157       -2.08317        0.00697
H         -1.16394       -2.18041       -0.00643
H          3.21105       -0.62777        0.58656
H          3.43884        1.67664       -0.79074
15 15 15 15 15 15 15 15 15 15 15 15 15 15 15 15 15 15 15 15 15 15 15 15 15 15 15 15 15 15 15 15 15 15 15 15 15 15 15 15
C1(=CC=C(C=C1)NO)
InChI=1S/C6H7NO/c8-7-6-4-2-1-3-5-6/h1-5,7-8H
