14
metacyc IMIDAZOLE_ACETALDEHYDE  242.9093374 242.9093374 242.9093374 242.9093374 242.9093374 242.9093374 242.9093374 242.9093374 242.9093374 242.9093374 242.9093374 242.9093374 242.9093374 242.9093374 242.9093374
C         -1.19039        0.06613       -0.00215
N         -0.31566        1.11737        0.01215
C          0.94675        0.59980        0.04044
N          0.92766       -0.71326        0.05919
C         -0.40170       -1.06623        0.01863
C         -0.80228       -2.49433       -0.02393
C         -1.61052       -2.85929        1.19054
O         -2.72596       -3.37176        1.13602
H         -2.26145        0.20842       -0.03692
H         -0.55385        2.09886       -0.00763
H          1.83231        1.22236        0.04286
H          0.07927       -3.14243       -0.04219
H         -1.39172       -2.69587       -0.92408
H         -1.11945       -2.68590        2.16314
14 14 14 14 14 14 14 14 14 14 14 14 14 14 14 14 14 14 14 14 14 14 14 14 14 14 14 14 14 14 14 14 14 14 14 14 14
C1(NC=NC(CC=O)=1)
InChI=1S/C5H6N2O/c8-2-1-5-3-6-4-7-5/h2-4H,1H2,(H,6,7)
