9
metacyc IMIDAZOLE-RING  268.92442432 268.92442432 268.92442432 268.92442432 268.92442432 268.92442432 268.92442432 268.92442432 268.92442432 268.92442432 268.92442432 268.92442432 268.92442432 268.92442432 268.92442432
C         -1.14024        0.01062       -0.00192
N         -0.35251        1.13261       -0.00251
C          0.88322        0.68862        0.00025
N          0.92406       -0.67672        0.00260
C         -0.36738       -1.12627        0.00125
H         -2.22026        0.08200       -0.00380
H          1.77674        1.29854        0.00068
H          1.76032       -1.24418        0.00491
H         -0.61568       -2.17772        0.00260
9 9 9 9 9 9 9 9 9 9 9 9 9 9 9 9 9 9 9 9 9 9
C1(N=CNC=1)
InChI=1S/C3H4N2/c1-2-5-3-4-1/h1-3H,(H,4,5)
