18
metacyc INDOLE-3-CARBOXALDEHYDE  316.84946656 316.84946656 316.84946656 316.84946656 316.84946656 316.84946656 316.84946656 316.84946656 316.84946656 316.84946656 316.84946656 316.84946656 316.84946656 316.84946656 316.84946656
C          0.99952       -0.01435        0.09682
H          0.50759       -1.00106        0.09632
O          0.33099        1.01546        0.09737
C          2.44986       -0.03948        0.09677
C          3.26303        1.07822        0.09664
N          4.56581        0.66343        0.09680
C          4.62561       -0.71117        0.09716
C          5.73707       -1.56247        0.09767
C          5.49945       -2.93948        0.09797
C          4.20139       -3.44276        0.09765
C          3.10021       -2.57822        0.09711
C          3.31083       -1.18264        0.09694
H          3.01323        2.13184        0.09649
H          5.37217        1.27323        0.09677
H          6.75052       -1.17413        0.09791
H          6.34220       -3.62733        0.09849
H          4.03989       -4.51818        0.09784
H          2.09579       -2.99128        0.09688
18 18 18 18 18 18 18 18 18 18 18 18 18 18 18 18 18 18 18 18 18 18 18 18 18 18 18 18 18 18 18 18 18 18 18 18 18 18 18 18 18 18 18 18 18 18 18 18 18
[CH](=O)C1(=CNC2(C=CC=CC1=2))
InChI=1S/C9H7NO/c11-6-7-5-10-9-4-2-1-3-8(7)9/h1-6,10H
