19
metacyc ISOCHROMANONE  212.501037928 212.501037928 212.501037928 212.501037928 212.501037928 212.501037928 212.501037928 212.501037928 212.501037928 212.501037928 212.501037928 212.501037928 212.501037928 212.501037928 212.501037928
C         -1.25951       -1.46267       -0.15648
C          0.02690       -0.70045       -0.06049
C          1.24903       -1.38934       -0.06212
C          2.45472       -0.69219        0.00772
C          2.44968        0.69732        0.08078
C          1.23809        1.38750        0.08554
C          0.02299        0.69118        0.00326
C         -1.27598        1.43567        0.01679
C         -2.49611        0.62404       -0.32359
O         -2.46983       -0.69731       -0.05700
O         -3.53255        1.16350       -0.70778
H         -1.29486       -2.20989        0.64423
H         -1.29948       -1.99227       -1.11457
H          1.26773       -2.47582       -0.12055
H          3.39767       -1.23314        0.00339
H          3.38690        1.24331        0.13667
H          1.24588        2.47413        0.14474
H         -1.21731        2.25305       -0.71168
H         -1.43487        1.85790        1.01568
19 19 19 19 19 19 19 19 19 19 19 19 19 19 19 19 19 19 19 19 19 19 19 19 19 19 19 19 19 19 19 19 19 19 19 19 19 19 19 19 19 19 19 19 19 19 19 19 19 19 19 19
C1(C2(=CC=CC=C(CC(O1)=O)2))
InChI=1S/C9H8O2/c10-9-5-7-3-1-2-4-8(7)6-11-9/h1-4H,5-6H2
