18
metacyc ISOQUINOLIN-12H-ONE  289.10954656 289.10954656 289.10954656 289.10954656 289.10954656 289.10954656 289.10954656 289.10954656 289.10954656 289.10954656 289.10954656 289.10954656 289.10954656 289.10954656 289.10954656
C          2.42563        0.74483        0.00269
C          2.47426       -0.64651        0.01893
C          1.28988       -1.38303        0.03623
C          0.03852       -0.73167        0.03366
C         -0.00882        0.67554        0.00967
C          1.19343        1.40305       -0.00219
C         -1.25724        1.31207       -0.00197
C         -2.40660        0.53514        0.01311
N         -2.40620       -0.81317        0.04435
C         -1.19278       -1.39450        0.05384
O         -1.26720       -2.75171        0.09289
H          3.34812        1.31996       -0.00718
H          3.43237       -1.15978        0.01904
H          1.33509       -2.47040        0.04993
H          1.17969        2.49079       -0.01506
H         -1.33918        2.39392       -0.02423
H         -3.38980        0.99781        0.00029
H         -2.23516       -2.85594        0.11211
18 18 18 18 18 18 18 18 18 18 18 18 18 18 18 18 18 18 18 18 18 18 18 18 18 18 18 18 18 18 18 18 18 18 18 18 18 18 18 18 18 18 18 18 18 18 18 18 18
C1(C=CC2(=C(C=1)C=CN=C2O))
InChI=1S/C9H7NO/c11-9-8-4-2-1-3-7(8)5-6-10-9/h1-6H,(H,10,11)
