19
metacyc L-2-AMINOHEXANOATE  211.14373996 211.14373996 211.14373996 211.14373996 211.14373996 211.14373996 211.14373996 211.14373996 211.14373996 211.14373996 211.14373996 211.14373996 211.14373996 211.14373996 211.14373996
C          0.93288       -0.14708       -0.05887
C          2.45333       -0.10543       -0.05634
C          2.97666        1.04627       -0.91569
C          4.51095        1.10375       -0.90148
C          5.10494        2.24412       -1.73864
N          4.71716        2.08359       -3.14751
C          4.75459        3.68041       -1.25659
O          4.47652        3.78079       -0.02222
O          4.84814        4.61237       -2.10728
H          0.57467       -0.97874        0.55541
H          0.54543       -0.28188       -1.07388
H          0.51522        0.78012        0.34713
H          2.84065       -1.05846       -0.43488
H          2.80862        0.00522        0.97419
H          2.56133        1.98940       -0.54321
H          2.61390        0.91902       -1.94223
H          4.90599        0.14711       -1.26931
H          4.85745        1.19628        0.13584
H          6.19818        2.17015       -1.68617
19 19 19 19 19 19 19 19 19 19 19 19 19 19 19 19 19 19 19 19 19 19 19 19 19 19 19 19 19 19 19 19 19 19 19 19 19 19 19 19 19 19 19 19 19 19 19 19 19 19 19 19
CCCCC([N+])C([O-])=O
InChI=1S/C6H13NO2/c1-2-3-4-5(7)6(8)9/h5H,2-4,7H2,1H3,(H,8,9)/t5-/m0/s1
