22
metacyc L-CITRULLINE  40.39467904 40.39467904 40.39467904 40.39467904 40.39467904 40.39467904 40.39467904 40.39467904 40.39467904 40.39467904 40.39467904 40.39467904 40.39467904 40.39467904 40.39467904
C          0.92528       -0.04623        0.11438
N          0.41565       -1.02892       -0.82456
C         -0.82860       -1.56949       -0.68977
N         -1.14410       -2.37314       -1.73813
O         -1.59807       -1.40054        0.24362
C          2.44834       -0.03616        0.09664
C          3.01944        1.01447        1.05738
C          4.55286        1.07045        1.07551
N          5.09298       -0.22411        1.51529
C          5.21387        1.48310       -0.27035
O          4.47062        2.15285       -1.05106
O          6.42881        1.17055       -0.43463
H          0.54651       -0.27118        1.11720
H          0.52331        0.92665       -0.18802
H          0.75443       -0.94580       -1.77146
H         -0.37814       -2.87136       -2.16556
H         -1.98498       -2.91023       -1.58641
H          2.79280        0.15566       -0.92605
H          2.81308       -1.03515        0.36396
H          2.65561        0.80556        2.07239
H          2.62247        2.00183        0.78925
H          4.86004        1.82578        1.80887
22 22 22 22 22 22 22 22 22 22 22 22 22 22 22 22 22 22 22 22 22 22 22 22 22 22 22 22 22 22 22 22 22 22 22 22 22 22 22 22 22 22 22 22 22 22 22 22 22 22 22 22 22 22 22 22 22 22 22 22 22
C(NC(N)=O)CCC([N+])C(=O)[O-]
InChI=1S/C6H13N3O3/c7-4(5(10)11)2-1-3-9-6(8)12/h4H,1-3,7H2,(H,10,11)(H3,8,9,12)/t4-/m0/s1
