25
metacyc L-EPINEPHRINE  266.201238632 266.201238632 266.201238632 266.201238632 266.201238632 266.201238632 266.201238632 266.201238632 266.201238632 266.201238632 266.201238632 266.201238632 266.201238632 266.201238632 266.201238632
C          6.58014        0.89734        1.54146
N          5.42015        0.47147        0.77230
C          5.76880       -0.63857       -0.14175
C          4.49548       -1.10944       -0.87825
O          3.89811        0.05503       -1.46837
C          4.76905       -2.16200       -1.93036
C          5.16123       -1.80696       -3.23396
C          5.39985       -2.78283       -4.20563
C          5.24987       -4.12173       -3.86702
C          4.88551       -4.48703       -2.57255
C          4.65148       -3.52258       -1.60284
O          4.74592       -5.81020       -2.25677
O          5.44762       -5.12173       -4.78221
H          6.29619        1.63180        2.30339
H          7.34030        1.37392        0.91236
H          7.06391        0.06982        2.07366
H          6.21580       -1.49020        0.38602
H          6.50586       -0.29549       -0.88107
H          3.76228       -1.49379       -0.15790
H          4.15922        0.72486       -0.78924
H          5.27142       -0.75233       -3.48184
H          5.69319       -2.47219       -5.20182
H          4.37464       -3.82076       -0.59537
H          4.95541       -6.27131       -3.09172
H          5.64665       -4.69240       -5.63114
25 25 25 25 25 25 25 25 25 25 25 25 25 25 25 25 25 25 25 25 25 25 25 25 25 25 25 25 25 25 25 25 25 25 25 25 25 25 25 25 25 25 25 25 25 25 25 25 25 25 25 25 25 25 25 25 25 25 25 25 25 25 25 25 25 25 25 25 25 25
C[N+]CC(O)C1(C=CC(=C(C=1)O)O)
InChI=1S/C9H13NO3/c1-10-5-9(13)6-2-3-7(11)8(12)4-6/h2-4,9-13H,5H2,1H3/p+1/t9-/m0/s1
