32
metacyc L-N2-2-CARBOXYETHYLARGININE  156.13428616 156.13428616 156.13428616 156.13428616 156.13428616 156.13428616 156.13428616 156.13428616 156.13428616 156.13428616 156.13428616 156.13428616 156.13428616 156.13428616 156.13428616
C          0.83921       -2.01642        1.37455
C          0.37068       -0.58134        1.17794
C         -1.13139       -0.40345        1.37513
C         -1.64910       -0.79234        2.77015
N         -1.00013        0.05032        3.81416
C         -1.41872       -0.33585        5.17916
C         -1.06244       -1.74541        5.63483
C          0.44731       -1.89789        5.65276
O          1.06119       -1.42219        6.64520
O          0.98084       -2.48131        4.65370
C         -3.18931       -0.50269        2.66769
O         -3.52829        0.70149        2.87049
O         -3.89122       -1.50230        2.33921
N          2.29402       -2.04001        1.17519
C          3.16582       -1.80722        2.12185
N          4.37234       -1.72630        1.76537
N          2.91644       -1.63362        3.38421
H          0.38802       -2.67396        0.62389
H          0.59213       -2.42684        2.34790
H          0.62467       -0.26665        0.15669
H          0.92549        0.09232        1.84160
H         -1.65625       -0.99506        0.61498
H         -1.37595        0.64685        1.16147
H         -1.47416       -1.85706        2.94662
H         -1.41170        0.98325        3.66410
H         -2.50189       -0.19260        5.28607
H         -0.96361        0.38409        5.87113
H         -1.54724       -2.51223        5.02012
H         -1.44565       -1.89435        6.65239
H          2.67425       -2.16106        0.24597
H          1.98704       -1.83547        3.81094
H          3.61964       -1.43104        4.07593
32 32 32 32 32 32 32 32 32 32 32 32 32 32 32 32 32 32 32 32 32 32 32 32 32 32 32 32 32 32 32 32 32 32 32 32 32 32 32 32 32 32 32 32 32 32 32 32 32 32 32 32 32 32 32 32 32 32 32 32 32 32 32 32 32 32 32 32 32 32 32 32 32 32 32 32 32 32 32 32 32 32 32 32 32 32 32 32 32 32 32
C(CCC(NCCC(=O)[O-])C(=O)[O-])NC(=[N+])N
InChI=1S/C9H18N4O4/c10-9(11)13-4-1-2-6(8(16)17)12-5-3-7(14)15/h6,12H,1-5H2,(H,14,15)(H,16,17)(H4,10,11,13)/p-1/t6-/m0/s1
