13
metacyc MEK  201.204233744 201.204233744 201.204233744 201.204233744 201.204233744 201.204233744 201.204233744 201.204233744 201.204233744 201.204233744 201.204233744 201.204233744 201.204233744 201.204233744 201.204233744
C          1.07792       -0.11161        0.04243
C          2.59080       -0.04413       -0.06400
C          3.05659        0.72858       -1.28387
C          4.54540        0.85421       -1.47806
O          2.27617        1.23637       -2.08860
H          0.78302       -0.67561        0.93261
H          0.64358       -0.60384       -0.83403
H          0.64360        0.89111        0.11316
H          2.99876       -1.05842       -0.12607
H          2.99856        0.44551        0.82653
H          5.08232        0.34525       -0.67319
H          4.82208        1.91136       -1.46956
H          4.82478        0.39561       -2.42981
13 13 13 13 13 13 13 13 13 13 13 13 13 13 13 13 13 13 13 13 13 13 13 13 13 13 13 13 13 13 13 13 13 13
CCC(C)=O
InChI=1S/C4H8O/c1-3-4(2)5/h3H2,1-2H3
