14
metacyc MORPHOLINE  328.5241236 328.5241236 328.5241236 328.5241236 328.5241236 328.5241236 328.5241236 328.5241236 328.5241236 328.5241236 328.5241236 328.5241236 328.5241236 328.5241236 328.5241236
C          0.65983       -1.19360        0.30019
C         -0.74213       -1.17123       -0.32872
O         -1.47939       -0.00156        0.06045
C         -0.74261        1.17012       -0.32351
C          0.65936        1.19026        0.30547
N          1.43604       -0.00068       -0.07638
H          1.17528       -2.10568       -0.02204
H          0.55989       -1.25997        1.39163
H         -1.31168       -2.04456        0.00533
H         -0.68848       -1.21042       -1.42387
H         -1.31250        2.04173        0.01443
H         -0.68899        1.21421       -1.41847
H          0.55941        1.25176        1.39719
H          1.17444        2.10395       -0.01273
14 14 14 14 14 14 14 14 14 14 14 14 14 14 14 14 14 14 14 14 14 14 14 14 14 14 14 14 14 14 14 14 14 14 14 14 14
C1(COCC[N+]1)
InChI=1S/C4H9NO/c1-3-6-4-2-5-1/h5H,1-4H2/p+1
