29
metacyc N-ACETYL-L-LYSINE  304.84699312 304.84699312 304.84699312 304.84699312 304.84699312 304.84699312 304.84699312 304.84699312 304.84699312 304.84699312 304.84699312 304.84699312 304.84699312 304.84699312 304.84699312
C          1.11020       -4.48266       -1.17218
C          2.11054       -3.56749       -0.51966
N          1.66894       -3.00553        0.64207
C          2.45463       -2.07462        1.47899
C          1.53407       -1.16434        2.36204
O          2.11685       -0.30597        3.07870
O          0.29389       -1.41606        2.23911
C          3.45313       -2.83851        2.36276
C          2.77245       -3.82853        3.31846
C          3.78762       -4.59219        4.16973
C          3.07818       -5.58089        5.09973
C          4.07589       -6.35179        5.95625
N          3.37458       -7.29197        6.82286
O          3.23069       -3.40367       -0.99542
H          0.12136       -4.40415       -0.71253
H          1.46320       -5.51313       -1.07157
H          1.02276       -4.22626       -2.23141
H          0.68071       -2.97848        0.88861
H          3.01062       -1.41818        0.79804
H          4.05289       -2.12831        2.94549
H          4.15504       -3.38754        1.72261
H          2.17721       -4.54903        2.74521
H          2.08103       -3.29353        3.98004
H          4.37987       -3.88499        4.76271
H          4.48358       -5.13362        3.51764
H          2.48427       -6.28224        4.49964
H          2.37711       -5.03618        5.74494
H          4.66054       -5.66432        6.57578
H          4.77414       -6.90795        5.32258
29 29 29 29 29 29 29 29 29 29 29 29 29 29 29 29 29 29 29 29 29 29 29 29 29 29 29 29 29 29 29 29 29 29 29 29 29 29 29 29 29 29 29 29 29 29 29 29 29 29 29 29 29 29 29 29 29 29 29 29 29 29 29 29 29 29 29 29 29 29 29 29 29 29 29 29 29 29 29 29 29 29
CC(NC(C(=O)[O-])CCCCC[N+])=O
InChI=1S/C9H18N2O3/c1-7(12)11-8(9(13)14)5-3-2-4-6-10/h8H,2-6,10H2,1H3,(H,11,12)(H,13,14)/t8-/m0/s1
