23
metacyc N-ALPHA-ACETYLORNITHINE  119.393272568 119.393272568 119.393272568 119.393272568 119.393272568 119.393272568 119.393272568 119.393272568 119.393272568 119.393272568 119.393272568 119.393272568 119.393272568 119.393272568 119.393272568
C          0.93378        0.13699       -0.30672
C          2.41420        0.01915       -0.07017
O          2.87332       -0.72728        0.79177
N          3.15938        0.82488       -0.87762
C          4.63130        0.95562       -0.86220
C          5.27546       -0.32817       -1.40445
C          6.80849       -0.36763       -1.42512
C          7.43877       -0.15168       -0.05265
N          8.88603       -0.33688       -0.13196
C          5.07418        2.18121       -1.73459
O          4.21781        2.52881       -2.60731
O          6.18554        2.69869       -1.43791
H          0.46820       -0.84536       -0.18745
H          0.72027        0.49158       -1.32043
H          0.51010        0.83674        0.41595
H          2.73614        1.45762       -1.55624
H          4.92050        1.12505        0.18072
H          4.91436       -0.51058       -2.42566
H          4.92681       -1.18399       -0.81177
H          7.19414        0.36711       -2.14129
H          7.10920       -1.35105       -1.81124
H          7.03623       -0.87389        0.66531
H          7.23227        0.85073        0.33092
23 23 23 23 23 23 23 23 23 23 23 23 23 23 23 23 23 23 23 23 23 23 23 23 23 23 23 23 23 23 23 23 23 23 23 23 23 23 23 23 23 23 23 23 23 23 23 23 23 23 23 23 23 23 23 23 23 23 23 23 23 23 23 23
CC(=O)NC(CCC[N+])C(=O)[O-]
InChI=1S/C7H14N2O3/c1-5(10)9-6(7(11)12)3-2-4-8/h6H,2-4,8H2,1H3,(H,9,10)(H,11,12)/t6-/m0/s1
