16
metacyc N-ETHYLMALEIMIDE  130.908330928 130.908330928 130.908330928 130.908330928 130.908330928 130.908330928 130.908330928 130.908330928 130.908330928 130.908330928 130.908330928 130.908330928 130.908330928 130.908330928 130.908330928
C          3.30684        0.39650       -1.09197
C          2.40542        0.07125        0.08879
N          2.98802        0.51581        1.33740
C          3.79857       -0.23532        2.12347
O          4.15212       -1.39101        1.98018
C          4.22765        0.61692        3.23843
C          3.68627        1.82206        3.05936
C          2.89299        1.77709        1.82605
O          2.29541        2.73446        1.36966
H          2.85283        0.05167       -2.02585
H          4.28377       -0.08660       -0.98502
H          3.47636        1.47553       -1.17140
H          2.24143       -1.01058        0.13849
H          1.43711        0.56621       -0.04224
H          4.87652        0.27997        4.02676
H          3.78783        2.70367        3.66701
16 16 16 16 16 16 16 16 16 16 16 16 16 16 16 16 16 16 16 16 16 16 16 16 16 16 16 16 16 16 16 16 16 16 16 16 16 16 16 16 16 16 16
CCN1(C(=O)C=CC(=O)1)
InChI=1S/C6H7NO2/c1-2-7-5(8)3-4-6(7)9/h3-4H,2H2,1H3
