24
metacyc N-METHYLHEXANAMIDE  506.4598112 506.4598112 506.4598112 506.4598112 506.4598112 506.4598112 506.4598112 506.4598112 506.4598112 506.4598112 506.4598112 506.4598112 506.4598112 506.4598112 506.4598112
C          1.03015        0.07217        0.04816
C          2.54933        0.08739        0.05740
C          3.10566        1.37362        0.67125
C          4.63356        1.35269        0.66130
C          5.24068        2.61852        1.26360
C          6.75803        2.56855        1.23735
O          7.39519        1.62405        0.78514
N          7.34733        3.69205        1.77285
C          8.78038        3.84616        1.84349
H          0.66582       -0.85959       -0.39650
H          0.63249        0.90620       -0.53840
H          0.63037        0.14210        1.06456
H          2.91449       -0.02083       -0.97080
H          2.91257       -0.77979        0.62153
H          2.74250        1.48037        1.70039
H          2.74277        2.24075        0.10640
H          4.98979        1.23350       -0.36987
H          4.98979        0.47740        1.21927
H          4.91482        2.73426        2.30419
H          4.91260        3.49920        0.69850
H          6.76317        4.43652        2.13021
H          9.30561        2.98280        1.42885
H          9.05863        3.97474        2.89224
H          9.05501        4.74433        1.28516
24 24 24 24 24 24 24 24 24 24 24 24 24 24 24 24 24 24 24 24 24 24 24 24 24 24 24 24 24 24 24 24 24 24 24 24 24 24 24 24 24 24 24 24 24 24 24 24 24 24 24 24 24 24 24 24 24 24 24 24 24 24 24 24 24 24 24
CCCCCC(=O)NC
InChI=1S/C7H15NO/c1-3-4-5-6-7(9)8-2/h3-6H2,1-2H3,(H,8,9)
