25
metacyc N-NITROARGININE  70.101095776 70.101095776 70.101095776 70.101095776 70.101095776 70.101095776 70.101095776 70.101095776 70.101095776 70.101095776 70.101095776 70.101095776 70.101095776 70.101095776 70.101095776
C          0.91072        0.05294        0.00634
C          0.42065       -0.31789        1.40368
N         -1.04100       -0.35276        1.40337
C         -1.64151       -1.48458        1.20892
N         -1.05240       -2.68917        1.00371
N         -2.99460       -1.39619        1.29406
N         -3.89033       -2.33332        1.00005
O         -3.52672       -3.46996        0.69140
O         -5.05691       -1.93461        1.07352
C          2.43945        0.05973       -0.12252
C          3.09556       -1.29121        0.17354
C          2.50190       -2.38126       -0.75008
O          2.76240       -2.30411       -1.98434
O          1.70913       -3.18125       -0.15462
N          4.54457       -1.21028       -0.04203
H          0.53313        1.05109       -0.24964
H          0.47541       -0.62467       -0.73825
H          0.74485        0.44946        2.11632
H          0.84965       -1.25361        1.77157
H         -0.08966       -2.73014        0.63022
H         -1.60999       -3.43591        0.59940
H         -3.30609       -0.45732        1.46926
H          2.84694        0.82055        0.55586
H          2.68986        0.38627       -1.14071
H          2.94124       -1.57268        1.22004
25 25 25 25 25 25 25 25 25 25 25 25 25 25 25 25 25 25 25 25 25 25 25 25 25 25 25 25 25 25 25 25 25 25 25 25 25 25 25 25 25 25 25 25 25 25 25 25 25 25 25 25 25 25 25 25 25 25 25 25 25 25 25 25 25 25 25 25 25 25
C(CN=C(N)N[N+](=O)[O-])CC(C(=O)[O-])[N+]
InChI=1S/C6H13N5O4/c7-4(5(12)13)2-1-3-9-6(8)10-11(14)15/h4H,1-3,7H2,(H,12,13)(H3,8,9,10)/t4-/m0/s1
