18
metacyc N1-METHYLADENINE  649.4314844 649.4314844 649.4314844 649.4314844 649.4314844 649.4314844 649.4314844 649.4314844 649.4314844 649.4314844 649.4314844 649.4314844 649.4314844 649.4314844 649.4314844
C          0.98614        0.11455       -0.03287
N          2.44112        0.02802       -0.06009
C          3.20072        1.18890       -0.13096
N          4.49147        1.28899       -0.16069
C          5.14386        0.09769       -0.11069
C          4.44750       -1.18029       -0.01351
N          5.39628       -2.16751        0.00619
C          6.51054       -1.48857       -0.06570
N          6.42418       -0.10439       -0.14284
C          3.10237       -1.20818        0.01705
N          2.42760       -2.41580        0.11472
H          0.63406        1.15162       -0.03634
H          0.58508       -0.36631        0.86556
H          0.56227       -0.37656       -0.91574
H          2.59561        2.11082       -0.16343
H          7.49703       -1.97991       -0.07019
H          3.06923       -3.19520       -0.04992
H          1.62267       -2.46249       -0.49871
18 18 18 18 18 18 18 18 18 18 18 18 18 18 18 18 18 18 18 18 18 18 18 18 18 18 18 18 18 18 18 18 18 18 18 18 18 18 18 18 18 18 18 18 18 18 18 18 18
CN2(C=NC1(C(N=CN=1)=C(N)2))
InChI=1S/C6H7N5/c1-11-3-10-6-4(5(11)7)8-2-9-6/h2-3H,7H2,1H3
