20
metacyc N5-METHYLGLUTAMINE  26.666506432 26.666506432 26.666506432 26.666506432 26.666506432 26.666506432 26.666506432 26.666506432 26.666506432 26.666506432 26.666506432 26.666506432 26.666506432 26.666506432 26.666506432
C          1.09507       -1.64791       -1.62560
N          2.51957       -1.47643       -1.55430
C          3.07576       -0.24199       -1.30200
O          2.40748        0.77516       -1.13875
C          4.58860       -0.25107       -1.22192
C          5.22413       -0.67008       -2.55405
C          6.75511       -0.71829       -2.52907
N          7.29389        0.61213       -2.22317
C          7.34532       -1.76445       -1.54326
O          6.54996       -2.70097       -1.21989
O          8.55723       -1.62300       -1.21280
H          0.87405       -2.69035       -1.86579
H          0.69031       -0.99216       -2.40153
H          0.65164       -1.38123       -0.66271
H          3.13167       -2.28701       -1.54656
H          4.87522       -0.92081       -0.40282
H          4.91297        0.75540       -0.93972
H          4.89147        0.02251       -3.33886
H          4.84561       -1.65386       -2.85875
H          7.10826       -1.00462       -3.52760
20 20 20 20 20 20 20 20 20 20 20 20 20 20 20 20 20 20 20 20 20 20 20 20 20 20 20 20 20 20 20 20 20 20 20 20 20 20 20 20 20 20 20 20 20 20 20 20 20 20 20 20 20 20 20
CNC(=O)CCC([N+])C(=O)[O-]
InChI=1S/C6H12N2O3/c1-8-5(9)3-2-4(7)6(10)11/h4H,2-3,7H2,1H3,(H,8,9)(H,10,11)/t4-/m0/s1
