31
metacyc N6N6N6-TRIMETHYL-L-LYSINE  529.86795232 529.86795232 529.86795232 529.86795232 529.86795232 529.86795232 529.86795232 529.86795232 529.86795232 529.86795232 529.86795232 529.86795232 529.86795232 529.86795232 529.86795232
C          0.95669        0.15932        0.07407
N          2.47330        0.08659        0.03237
C          2.96906       -0.75203       -1.16009
C          2.45559       -2.18945       -1.17041
C          3.02338       -2.98141       -2.35565
C          4.55769       -3.08763       -2.40126
C          5.17634       -3.67597       -1.13243
C          4.63163       -5.09683       -0.87409
O          4.77147       -5.94271       -1.80176
O          3.98834       -5.19046        0.21872
N          6.63427       -3.74116       -1.25693
C          3.03192        1.49744       -0.13859
C          2.99825       -0.48806        1.34702
H          0.59863        0.49708       -0.90290
H          0.66701        0.87372        0.85122
H          0.55569       -0.82785        0.31621
H          4.06238       -0.71599       -1.11551
H          2.64362       -0.23097       -2.06922
H          1.36357       -2.19924       -1.25798
H          2.69463       -2.70579       -0.23797
H          2.68090       -2.51827       -3.28921
H          2.58681       -3.98723       -2.33960
H          4.98452       -2.09464       -2.58904
H          4.82773       -3.69465       -3.27503
H          4.95391       -3.04031       -0.26923
H          2.65254        1.90846       -1.07950
H          4.12445        1.43950       -0.16010
H          2.69971        2.11126        0.70382
H          2.51912       -1.45124        1.53493
H          2.74301        0.21185        2.14908
H          4.08372       -0.59632        1.26918
31 31 31 31 31 31 31 31 31 31 31 31 31 31 31 31 31 31 31 31 31 31 31 31 31 31 31 31 31 31 31 31 31 31 31 31 31 31 31 31 31 31 31 31 31 31 31 31 31 31 31 31 31 31 31 31 31 31 31 31 31 31 31 31 31 31 31 31 31 31 31 31 31 31 31 31 31 31 31 31 31 31 31 31 31 31 31 31
C[N+](CCCCC(C([O-])=O)[N+])(C)C
InChI=1S/C9H20N2O2/c1-11(2,3)7-5-4-6-8(10)9(12)13/h8H,4-7,10H2,1-3H3/p+1/t8-/m0/s1
