25
metacyc NALPHANALPHA-DIMETHYL-L-HISTIDINE  378.79659904 378.79659904 378.79659904 378.79659904 378.79659904 378.79659904 378.79659904 378.79659904 378.79659904 378.79659904 378.79659904 378.79659904 378.79659904 378.79659904 378.79659904
C          1.19542       -0.47987        0.30134
N          2.63332       -0.29331        0.12005
C          3.25036       -1.58180       -0.21821
C          2.92395        0.71949       -0.96529
C          2.33913        2.13750       -0.78679
C          2.77288        2.94838        0.39273
C          3.60792        2.62529        1.43848
N          3.78607        3.77798        2.14009
C          3.00131        4.73378        1.56495
N          2.35343        4.26379        0.52407
C          4.45630        0.91756       -1.29152
O          5.30114        0.72877       -0.36776
O          4.68340        1.20728       -2.50784
H          1.00298       -1.21993        1.08724
H          0.70240       -0.82448       -0.61524
H          0.70747        0.44013        0.63623
H          3.00337       -2.33360        0.54042
H          4.34195       -1.52988       -0.23265
H          2.90949       -1.95846       -1.18972
H          2.48072        0.31998       -1.89076
H          1.24360        2.07901       -0.76726
H          2.57195        2.72866       -1.68327
H          4.13870        1.71184        1.67405
H          4.41806        3.90294        2.91536
H          2.95758        5.74806        1.93406
25 25 25 25 25 25 25 25 25 25 25 25 25 25 25 25 25 25 25 25 25 25 25 25 25 25 25 25 25 25 25 25 25 25 25 25 25 25 25 25 25 25 25 25 25 25 25 25 25 25 25 25 25 25 25 25 25 25 25 25 25 25 25 25 25 25 25 25 25 25
C[N+](C)C(CC1(=CNC=N1))C(=O)[O-]
InChI=1S/C8H13N3O2/c1-11(2)7(8(12)13)3-6-4-9-5-10-6/h4-5,7H,3H2,1-2H3,(H,9,10)(H,12,13)/t7-/m0/s1
