21
metacyc NORSPERMIDINE  860.99979576 860.99979576 860.99979576 860.99979576 860.99979576 860.99979576 860.99979576 860.99979576 860.99979576 860.99979576 860.99979576 860.99979576 860.99979576 860.99979576 860.99979576
C          1.09987        0.08160       -0.03607
C          0.55520        1.19554        0.85183
C         -0.97883        1.18821        0.84609
N         -1.48772        2.25966        1.69854
C         -2.94808        2.27795        1.71351
C         -3.45089        3.41297        2.61495
C         -4.97543        3.44269        2.63926
N         -5.46487        4.52010        3.49522
N          2.56039        0.07910       -0.03724
H          0.74785        0.20838       -1.06533
H          0.74704       -0.89336        0.31635
H          0.92441        2.16783        0.49915
H          0.92440        1.06914        1.87849
H         -1.32666        0.20538        1.18993
H         -1.32702        1.30200       -0.18883
H         -3.35540        1.32810        2.08403
H         -3.35586        2.42375        0.70455
H         -3.06463        4.37516        2.25291
H         -3.06408        3.27843        3.63395
H         -5.36922        2.49130        3.01221
H         -5.36977        3.59025        1.62836
21 21 21 21 21 21 21 21 21 21 21 21 21 21 21 21 21 21 21 21 21 21 21 21 21 21 21 21 21 21 21 21 21 21 21 21 21 21 21 21 21 21 21 21 21 21 21 21 21 21 21 21 21 21 21 21 21 21
C(CC[N+]CCC[N+])[N+]
InChI=1S/C6H17N3/c7-3-1-5-9-6-2-4-8/h9H,1-8H2/p+3
