21
metacyc O-FORMAMINOACETOPHENONE  243.760233296 243.760233296 243.760233296 243.760233296 243.760233296 243.760233296 243.760233296 243.760233296 243.760233296 243.760233296 243.760233296 243.760233296 243.760233296 243.760233296 243.760233296
C          0.83406        0.21134       -0.10974
C          2.33393        0.20086       -0.26831
O          2.92043       -0.79497       -0.68909
C          3.10900        1.42961        0.09291
C          2.45007        2.67007        0.12653
C          3.14703        3.83625        0.44162
C          4.50795        3.77575        0.72046
C          5.17246        2.54914        0.70400
C          4.48686        1.36371        0.40282
N          5.14913        0.11743        0.40557
C          6.39593       -0.16911        0.87904
O          6.89691       -1.28616        0.82804
H          0.46156       -0.81727       -0.13972
H          0.37090        0.77350       -0.92468
H          0.55380        0.63324        0.85960
H          1.39160        2.75766       -0.10222
H          2.63079        4.79337        0.45762
H          5.05811        4.68569        0.94132
H          6.23917        2.56070        0.90430
H          4.63484       -0.68765        0.03744
H          6.92983        0.66617        1.34980
21 21 21 21 21 21 21 21 21 21 21 21 21 21 21 21 21 21 21 21 21 21 21 21 21 21 21 21 21 21 21 21 21 21 21 21 21 21 21 21 21 21 21 21 21 21 21 21 21 21 21 21 21 21 21 21 21 21
CC(=O)C1(C=CC=CC(NC=O)=1)
InChI=1S/C9H9NO2/c1-7(12)8-4-2-3-5-9(8)10-6-11/h2-6H,1H3,(H,10,11)
