1
metacyc OXONIUM  127.617451752 127.617451752 127.617451752 127.617451752 127.617451752 127.617451752 127.617451752 127.617451752 127.617451752 127.617451752 127.617451752 127.617451752 127.617451752 127.617451752 127.617451752
O          1.08768        0.02356        0.04192

[O+]
InChI=1S/H2O/h1H2/p+1
