16
metacyc PENTAN-2-ONE  293.93104172 293.93104172 293.93104172 293.93104172 293.93104172 293.93104172 293.93104172 293.93104172 293.93104172 293.93104172 293.93104172 293.93104172 293.93104172 293.93104172 293.93104172
C          0.95931        0.10428       -0.00061
C          2.47905        0.09257        0.01693
C          3.05968        0.86980       -1.16099
C          4.57793        0.87184       -1.16401
O          5.24701        0.30279       -0.30220
C          5.25161        1.61441       -2.28865
H          0.56634       -0.45837        0.85203
H          0.57387       -0.35431       -0.91682
H          0.57400        1.12706        0.06079
H          2.83286       -0.94504       -0.00885
H          2.83300        0.52434        0.96075
H          2.72187        1.91149       -1.12356
H          2.72191        0.42562       -2.10400
H          4.50805        2.05593       -2.95746
H          5.86835        0.91787       -2.86195
H          5.86825        2.41530       -1.87329
16 16 16 16 16 16 16 16 16 16 16 16 16 16 16 16 16 16 16 16 16 16 16 16 16 16 16 16 16 16 16 16 16 16 16 16 16 16 16 16 16 16 16
CCCC(=O)C
InChI=1S/C5H10O/c1-3-4-5(2)6/h3-4H2,1-2H3
