13
metacyc PHENOL  205.755409032 205.755409032 205.755409032 205.755409032 205.755409032 205.755409032 205.755409032 205.755409032 205.755409032 205.755409032 205.755409032 205.755409032 205.755409032 205.755409032 205.755409032
C         -1.36302       -0.07343        0.01957
C         -0.73324        1.17200       -0.00668
C          0.66001        1.25156       -0.04391
C          1.41112        0.07952       -0.05487
O          2.77398        0.10988       -0.09473
C          0.79160       -1.16490       -0.02664
C         -0.60030       -1.24211        0.01024
H         -2.44801       -0.13384        0.04751
H         -1.32970        2.08054        0.00171
H          1.13618        2.22645       -0.06344
H          3.05997        1.03706       -0.13048
H          1.39070       -2.07062       -0.03428
H         -1.08922       -2.21243        0.03128
13 13 13 13 13 13 13 13 13 13 13 13 13 13 13 13 13 13 13 13 13 13 13 13 13 13 13 13 13 13 13 13 13 13
C1(=CC=C(O)C=C1)
InChI=1S/C6H6O/c7-6-4-2-1-3-5-6/h1-5,7H
