16
metacyc PHENYLACETONITRILE  479.56104256 479.56104256 479.56104256 479.56104256 479.56104256 479.56104256 479.56104256 479.56104256 479.56104256 479.56104256 479.56104256 479.56104256 479.56104256 479.56104256 479.56104256
C         -1.42628        0.02689        0.02494
C         -0.77747        1.25834       -0.03739
C          0.61472        1.31309       -0.12466
C          1.37265        0.13272       -0.15683
C          0.70913       -1.10123       -0.08216
C         -0.68353       -1.15188        0.00501
C          2.87941        0.19150       -0.22286
C          3.49854        0.26266        1.16351
N          4.01215        0.32169        2.31362
H         -2.51011       -0.01425        0.09677
H         -1.35701        2.17780       -0.01120
H          1.10152        2.28584       -0.15966
H          1.26980       -2.03376       -0.08388
H         -1.18991       -2.11234        0.06406
H          3.19512        1.06541       -0.80501
H          3.26764       -0.68972       -0.74723
16 16 16 16 16 16 16 16 16 16 16 16 16 16 16 16 16 16 16 16 16 16 16 16 16 16 16 16 16 16 16 16 16 16 16 16 16 16 16 16 16 16 16
C1(C=CC(=CC=1)CC#N)
InChI=1S/C8H7N/c9-7-6-8-4-2-1-3-5-8/h1-5H,6H2
