18
metacyc PHENYLETHYLAMINE  634.00733576 634.00733576 634.00733576 634.00733576 634.00733576 634.00733576 634.00733576 634.00733576 634.00733576 634.00733576 634.00733576 634.00733576 634.00733576 634.00733576 634.00733576
C          3.21293       -0.21191       -1.33116
N          2.72352       -1.45616       -1.91383
C          2.45267        0.09579       -0.04327
C          2.93286        1.37390        0.60131
C          2.32039        2.59748        0.29790
C          2.76892        3.77865        0.89211
C          3.83538        3.74865        1.78845
C          4.45758        2.53846        2.08932
C          4.01050        1.35616        1.49698
H          3.08561        0.59653       -2.05919
H          4.28623       -0.30924       -1.13537
H          2.56265       -0.72957        0.67270
H          1.37628        0.17521       -0.24530
H          1.48597        2.63866       -0.39862
H          2.28364        4.72239        0.65738
H          4.18104        4.66807        2.25342
H          5.28982        2.51492        2.78767
H          4.50607        0.41973        1.74413
18 18 18 18 18 18 18 18 18 18 18 18 18 18 18 18 18 18 18 18 18 18 18 18 18 18 18 18 18 18 18 18 18 18 18 18 18 18 18 18 18 18 18 18 18 18 18 18 18
C([N+])CC1(=CC=CC=C1)
InChI=1S/C8H11N/c9-7-6-8-4-2-1-3-5-8/h1-5H,6-7,9H2/p+1
