17
metacyc PHENYLACETATE  90.816991888 90.816991888 90.816991888 90.816991888 90.816991888 90.816991888 90.816991888 90.816991888 90.816991888 90.816991888 90.816991888 90.816991888 90.816991888 90.816991888 90.816991888
C         -1.46604       -0.01163        0.06530
C         -0.76500        1.18864       -0.01301
C          0.63088        1.17826       -0.07207
C          1.34806       -0.02945       -0.04771
C          0.62512       -1.22675        0.02385
C         -0.77168       -1.21752        0.08556
C          2.85081        0.00295       -0.22288
C          3.67523       -1.04995        0.51807
O          3.60605       -2.23025        0.06530
O          4.39815       -0.60607        1.45827
H         -2.55168       -0.00722        0.10016
H         -1.29842        2.13397       -0.03754
H          1.16754        2.12138       -0.14546
H          1.14813       -2.18235        0.01882
H         -1.30899       -2.15972        0.13943
H          3.22208        0.98841        0.08992
H          3.07041       -0.08325       -1.29448
17 17 17 17 17 17 17 17 17 17 17 17 17 17 17 17 17 17 17 17 17 17 17 17 17 17 17 17 17 17 17 17 17 17 17 17 17 17 17 17 17 17 17 17 17 17
C1(=CC=C(C=C1)CC([O-])=O)
InChI=1S/C8H8O2/c9-8(10)6-7-4-2-1-3-5-7/h1-5H,6H2,(H,9,10)/p-1
