17
metacyc PHENYLACETALDEHYDE  355.59385048 355.59385048 355.59385048 355.59385048 355.59385048 355.59385048 355.59385048 355.59385048 355.59385048 355.59385048 355.59385048 355.59385048 355.59385048 355.59385048 355.59385048
C          1.13617       -0.38210        0.00838
H          0.43064        0.46610        0.03428
O          0.72202       -1.53929       -0.00693
C          2.59775       -0.02241        0.06739
C          2.96731        0.92306       -1.04459
C          2.90687        2.31011       -0.85357
C          3.18011        3.17921       -1.91084
C          3.51612        2.67125       -3.16409
C          3.58644        1.29345       -3.36172
C          3.31152        0.42211       -2.30744
H          3.19931       -0.93655        0.00718
H          2.79911        0.43296        1.04339
H          2.63948        2.72559        0.11559
H          3.12394        4.25443       -1.75916
H          3.71999        3.34876       -3.98927
H          3.84749        0.89674       -4.33932
H          3.35785       -0.65188       -2.48110
17 17 17 17 17 17 17 17 17 17 17 17 17 17 17 17 17 17 17 17 17 17 17 17 17 17 17 17 17 17 17 17 17 17 17 17 17 17 17 17 17 17 17 17 17 17
[CH](=O)CC1(=CC=CC=C1)
InChI=1S/C8H8O/c9-7-6-8-4-2-1-3-5-8/h1-5,7H,6H2
