21
metacyc PHENYLHYDANTOIN  176.43497048 176.43497048 176.43497048 176.43497048 176.43497048 176.43497048 176.43497048 176.43497048 176.43497048 176.43497048 176.43497048 176.43497048 176.43497048 176.43497048 176.43497048
C         -1.40319       -0.07190        0.06548
C         -0.76061        1.16084        0.02572
C          0.63288        1.22046       -0.02905
C          1.40702        0.04783       -0.04184
C          0.74420       -1.18808       -0.00854
C         -0.65187       -1.24633        0.04690
C          2.90408        0.16919       -0.13345
N          3.64216       -0.87360        0.53424
C          4.64454       -1.36970       -0.26451
O          5.53183       -2.11523        0.10824
N          4.49293       -0.86936       -1.51255
C          3.48113        0.04372       -1.54727
O          3.15868        0.68614       -2.53523
H         -2.48865       -0.11908        0.09879
H         -1.34346        2.07921        0.03053
H          1.11175        2.19717       -0.07431
H          1.30553       -2.11991       -0.03154
H         -1.15576       -2.20928        0.06964
H          3.25012        1.11618        0.29553
H          3.64748       -1.03270        1.53243
H          5.09785       -1.08306       -2.28640
21 21 21 21 21 21 21 21 21 21 21 21 21 21 21 21 21 21 21 21 21 21 21 21 21 21 21 21 21 21 21 21 21 21 21 21 21 21 21 21 21 21 21 21 21 21 21 21 21 21 21 21 21 21 21 21 21 21
C1(C=CC(=CC=1)C2(NC(=O)NC2=O))
InChI=1S/C9H8N2O2/c12-8-7(10-9(13)11-8)6-4-2-1-3-5-6/h1-5,7H,(H2,10,11,12,13)
