21
metacyc PHLORETATE  18.3595275616 18.3595275616 18.3595275616 18.3595275616 18.3595275616 18.3595275616 18.3595275616 18.3595275616 18.3595275616 18.3595275616 18.3595275616 18.3595275616 18.3595275616 18.3595275616 18.3595275616
C          0.79046       -2.05641        1.71213
O          0.25966       -1.13545        1.03394
O          0.23692       -2.97754        2.38042
C          2.31716       -2.09554        1.74231
C          2.97877       -0.99966        0.91432
C          4.49094       -1.04952        0.99121
C          5.19291       -2.16352        0.50733
C          6.58427       -2.22626        0.60431
C          7.27777       -1.16442        1.17588
O          8.63567       -1.19831        1.30964
C          6.60440       -0.03952        1.63534
C          5.21202        0.01734        1.54492
H          2.62518       -3.08551        1.38334
H          2.63861       -2.01842        2.78889
H          2.62727       -0.01737        1.25541
H          2.68347       -1.07988       -0.13963
H          4.64712       -2.99341        0.06334
H          7.09803       -3.10616        0.23359
H          8.93263       -2.08792        1.05924
H          7.15570        0.78590        2.07377
H          4.68714        0.89373        1.91799
21 21 21 21 21 21 21 21 21 21 21 21 21 21 21 21 21 21 21 21 21 21 21 21 21 21 21 21 21 21 21 21 21 21 21 21 21 21 21 21 21 21 21 21 21 21 21 21 21 21 21 21 21 21 21 21 21 21
C([O-])(=O)CCC1(C=CC(O)=CC=1)
InChI=1S/C9H10O3/c10-8-4-1-7(2-5-8)3-6-9(11)12/h1-2,4-5,10H,3,6H2,(H,11,12)/p-1
