16
metacyc PRENOL  351.586557536 351.586557536 351.586557536 351.586557536 351.586557536 351.586557536 351.586557536 351.586557536 351.586557536 351.586557536 351.586557536 351.586557536 351.586557536 351.586557536 351.586557536
C          0.98220        0.01511        0.06934
C          2.48630       -0.02962        0.04845
C          3.12858       -1.26556       -0.51545
C          3.19486        1.01138        0.53086
C          4.68315        1.12924        0.60544
O          5.07916        2.24909       -0.17009
H          0.53935       -0.90202       -0.33144
H          0.61447        0.84902       -0.53739
H          0.61534        0.13251        1.09464
H          2.38575       -1.99460       -0.85333
H          3.74559       -1.75977        0.24223
H          3.75237       -1.01448       -1.37933
H          2.65766        1.87184        0.92745
H          5.21096        0.24710        0.23389
H          4.99299        1.29917        1.64071
H          4.74174        2.09450       -1.06898
16 16 16 16 16 16 16 16 16 16 16 16 16 16 16 16 16 16 16 16 16 16 16 16 16 16 16 16 16 16 16 16 16 16 16 16 16 16 16 16 16 16 16
CC(C)=CCO
InChI=1S/C5H10O/c1-5(2)3-4-6/h3,6H,4H2,1-2H3
