9
metacyc PROPENE  340.27103832 340.27103832 340.27103832 340.27103832 340.27103832 340.27103832 340.27103832 340.27103832 340.27103832 340.27103832 340.27103832 340.27103832 340.27103832 340.27103832 340.27103832
C          1.02460       -0.07672       -0.04268
C          2.36213       -0.12605       -0.06191
C          3.15099       -1.30752       -0.52254
H          0.50671        0.81236        0.30395
H          0.41719       -0.91502       -0.36951
H          2.92920        0.73883        0.27529
H          2.50864       -2.13329       -0.84449
H          3.79016       -1.66833        0.28904
H          3.79016       -1.02379       -1.36417
9 9 9 9 9 9 9 9 9 9 9 9 9 9 9 9 9 9 9 9 9 9
C=CC
InChI=1S/C3H6/c1-3-2/h3H,1H2,2H3
