13
metacyc PURINE  295.455193424 295.455193424 295.455193424 295.455193424 295.455193424 295.455193424 295.455193424 295.455193424 295.455193424 295.455193424 295.455193424 295.455193424 295.455193424 295.455193424 295.455193424
C          0.93519       -1.37855        0.00157
N          2.08902       -0.65966        0.00292
C          1.99328        0.68966        0.00389
N          0.87585        1.44671        0.00369
C         -0.21993        0.67287        0.00235
N         -1.51958        1.08732        0.00177
C         -2.30748       -0.03203        0.00041
N         -1.59180       -1.13781        0.00004
C         -0.28428       -0.71073        0.00125
H          1.01853       -2.45722        0.00079
H          2.93525        1.23090        0.00498
H         -1.82536        2.04846        0.00228
H         -3.38847        0.02218       -0.00026
13 13 13 13 13 13 13 13 13 13 13 13 13 13 13 13 13 13 13 13 13 13 13 13 13 13 13 13 13 13 13 13 13 13
C1(=NC=NC2(NC=NC1=2))
InChI=1S/C5H4N4/c1-4-5(8-2-6-1)9-3-7-4/h1-3H,(H,6,7,8,9)
