9
metacyc PYRAZOLE  268.92442432 268.92442432 268.92442432 268.92442432 268.92442432 268.92442432 268.92442432 268.92442432 268.92442432 268.92442432 268.92442432 268.92442432 268.92442432 268.92442432 268.92442432
C         -1.11565        0.02586        0.00022
N         -0.35803        1.12530       -0.00213
N          0.89720        0.64621       -0.00179
C          0.95544       -0.71729        0.00070
C         -0.34790       -1.15297        0.00207
H         -2.19317        0.12966        0.00050
H          1.66552        1.30909       -0.00335
H          1.89937       -1.24278        0.00126
H         -0.69692       -2.17546        0.00411
9 9 9 9 9 9 9 9 9 9 9 9 9 9 9 9 9 9 9 9 9 9
C1(=NNC=C1)
InChI=1S/C3H4N2/c1-2-4-5-3-1/h1-3H,(H,4,5)
