23
metacyc PYRIDOXINE  96.32538688 96.32538688 96.32538688 96.32538688 96.32538688 96.32538688 96.32538688 96.32538688 96.32538688 96.32538688 96.32538688 96.32538688 96.32538688 96.32538688 96.32538688
C          0.95224        0.02581       -0.04658
C          2.45255       -0.04844       -0.03426
N          3.12099        1.12529        0.02928
C          4.46871        1.05978        0.03200
C          5.21640       -0.11945        0.01093
C          4.51211       -1.34574       -0.04549
C          3.10404       -1.28291       -0.08578
O          2.32813       -2.40530       -0.19936
C          5.26159       -2.66038       -0.04919
O          4.37522       -3.78561       -0.07173
C          6.71742        0.01963       -0.05655
O          7.39573       -0.99539        0.66700
H          0.61479        1.06646       -0.02363
H          0.54322       -0.48265        0.83234
H          0.55378       -0.43979       -0.95302
H          4.95270        2.03344        0.04685
H          2.93869       -3.15912       -0.34980
H          5.86713       -2.75774        0.85618
H          5.89871       -2.72819       -0.93639
H          4.53703       -4.26817        0.76100
H          7.04177        0.98692        0.34464
H          7.03586       -0.03009       -1.10312
H          7.60342       -0.62934        1.54445
23 23 23 23 23 23 23 23 23 23 23 23 23 23 23 23 23 23 23 23 23 23 23 23 23 23 23 23 23 23 23 23 23 23 23 23 23 23 23 23 23 23 23 23 23 23 23 23 23 23 23 23 23 23 23 23 23 23 23 23 23 23 23 23
CC1(=NC=C(C(=C1O)CO)CO)
InChI=1S/C8H11NO3/c1-5-8(12)7(4-11)6(3-10)2-9-5/h2,10-12H,3-4H2,1H3
