21
metacyc PYRIDOXAL  43.555841664 43.555841664 43.555841664 43.555841664 43.555841664 43.555841664 43.555841664 43.555841664 43.555841664 43.555841664 43.555841664 43.555841664 43.555841664 43.555841664 43.555841664
C          0.92357        0.00234        0.04062
C          2.42266       -0.06162        0.03914
N          3.08364        1.11893        0.08029
C          4.43261        1.08109        0.07748
C          5.19842       -0.08285        0.03890
C          4.49237       -1.29487       -0.03799
C          3.08677       -1.28370       -0.01522
O          2.33238       -2.42760       -0.05589
C          5.18825       -2.59592       -0.18491
O          4.55849       -3.65226       -0.11174
C          6.69217        0.07471        0.01902
O          7.33942       -0.94515        0.76084
H          0.57937        1.04173        0.05153
H          0.52271       -0.49726        0.92779
H          0.52110       -0.47505       -0.85850
H          4.89665        2.06552        0.10442
H          2.94190       -3.20134       -0.05652
H          6.26830       -2.60702       -0.38656
H          6.99623        1.03517        0.45159
H          7.05138        0.04569       -1.01473
H          7.34854       -0.66936        1.69476
21 21 21 21 21 21 21 21 21 21 21 21 21 21 21 21 21 21 21 21 21 21 21 21 21 21 21 21 21 21 21 21 21 21 21 21 21 21 21 21 21 21 21 21 21 21 21 21 21 21 21 21 21 21 21 21 21 21
CC1(N=CC(=C(C=1O)C=O)CO)
InChI=1S/C8H9NO3/c1-5-8(12)7(4-11)6(3-10)2-9-5/h2,4,10,12H,3H2,1H3
