11
metacyc PYRIDINE  391.98059224 391.98059224 391.98059224 391.98059224 391.98059224 391.98059224 391.98059224 391.98059224 391.98059224 391.98059224 391.98059224 391.98059224 391.98059224 391.98059224 391.98059224
C         -0.75425        1.10954        0.04792
C          0.62545        1.23383        0.01009
C          1.39060        0.07234       -0.00582
C          0.75294       -1.16365        0.01650
C         -0.63218       -1.18617        0.05405
N         -1.40161       -0.07594        0.07030
H         -1.39491        1.98651        0.06164
H          1.09191        2.21219       -0.00655
H          2.47480        0.12991       -0.03538
H          1.32052       -2.08710        0.00495
H         -1.17622       -2.12606        0.07263
11 11 11 11 11 11 11 11 11 11 11 11 11 11 11 11 11 11 11 11 11 11 11 11 11 11 11 11
C1(=CC=CC=N1)
InChI=1S/C5H5N/c1-2-4-6-5-3-1/h1-5H
