22
metacyc PYRIDOXAMINE  328.45450184 328.45450184 328.45450184 328.45450184 328.45450184 328.45450184 328.45450184 328.45450184 328.45450184 328.45450184 328.45450184 328.45450184 328.45450184 328.45450184 328.45450184
C          1.04493        0.09321        0.08846
C          2.54562        0.04316        0.07786
N          3.18926        1.23330        0.06932
C          4.53615        1.20079        0.05417
C          5.30457        0.03579        0.03620
C          6.80103        0.17221        0.03273
O          7.34276       -0.45966        1.18370
C          4.63014       -1.20841        0.01890
C          5.42767       -2.49797        0.05465
N          4.79207       -3.60742       -0.65676
C          3.22276       -1.18015        0.06528
O          2.46392       -2.32059        0.10377
H          0.69139        1.12983        0.09436
H          0.65157       -0.40320        0.97986
H          0.64395       -0.39270       -0.80567
H          4.99940        2.18475        0.06437
H          7.12467        1.21920        0.02316
H          7.21921       -0.29926       -0.86228
H          7.38839        0.21483        1.88349
H          5.58810       -2.78716        1.09858
H          6.40573       -2.36726       -0.41473
H          3.02832       -3.08461       -0.11170
22 22 22 22 22 22 22 22 22 22 22 22 22 22 22 22 22 22 22 22 22 22 22 22 22 22 22 22 22 22 22 22 22 22 22 22 22 22 22 22 22 22 22 22 22 22 22 22 22 22 22 22 22 22 22 22 22 22 22 22 22
CC1(=NC=C(CO)C(C[N+])=C(O)1)
InChI=1S/C8H12N2O2/c1-5-8(12)7(2-9)6(4-11)3-10-5/h3,11-12H,2,4,9H2,1H3/p+1
