18
metacyc QUINOLIN-4-OL  289.10954656 289.10954656 289.10954656 289.10954656 289.10954656 289.10954656 289.10954656 289.10954656 289.10954656 289.10954656 289.10954656 289.10954656 289.10954656 289.10954656 289.10954656
C          2.35208       -0.63908        0.02692
N          1.19923       -1.33990        0.02312
C          0.03977       -0.65964        0.00965
C         -1.14305       -1.38649       -0.00079
C         -2.39348       -0.76622       -0.02194
C         -2.47241        0.61855       -0.03322
C         -1.30079        1.37558       -0.02090
C         -0.02673        0.75216        0.00311
C          1.21069        1.43186        0.01582
C          2.41051        0.73652        0.02329
O          1.33131        2.79654        0.02206
H          3.25799       -1.23810        0.03378
H         -1.08792       -2.47309        0.00558
H         -3.29772       -1.36911       -0.03242
H         -3.44203        1.10981       -0.05404
H         -1.40332        2.45585       -0.03713
H          3.36105        1.25613        0.02857
H          0.45677        3.20222        0.11039
18 18 18 18 18 18 18 18 18 18 18 18 18 18 18 18 18 18 18 18 18 18 18 18 18 18 18 18 18 18 18 18 18 18 18 18 18 18 18 18 18 18 18 18 18 18 18 18 18
C2(=NC1(C=CC=CC=1C(=C2)O))
InChI=1S/C9H7NO/c11-9-5-6-10-8-4-2-1-3-7(8)9/h1-6H,(H,10,11)
