18
metacyc QUINOLIN-2-OL  289.10954656 289.10954656 289.10954656 289.10954656 289.10954656 289.10954656 289.10954656 289.10954656 289.10954656 289.10954656 289.10954656 289.10954656 289.10954656 289.10954656 289.10954656
C          2.38293       -0.62715        0.00577
O          3.52312       -1.36089       -0.00773
N          1.26254       -1.36555        0.00164
C          0.09512       -0.69686        0.00150
C          0.02940        0.71599        0.00482
C          1.23475        1.43265        0.01533
C          2.44173        0.74706        0.01552
C         -1.21603        1.36762       -0.00537
C         -2.39683        0.62802       -0.01809
C         -2.33877       -0.76127       -0.01612
C         -1.09834       -1.40676       -0.00512
H          3.14044       -2.25667       -0.02584
H          1.23748        2.51926        0.02068
H          3.39277        1.26443        0.01929
H         -1.27090        2.45382       -0.00637
H         -3.35862        1.13497       -0.03045
H         -3.25416       -1.34702       -0.02420
H         -1.06307       -2.49353       -0.00333
18 18 18 18 18 18 18 18 18 18 18 18 18 18 18 18 18 18 18 18 18 18 18 18 18 18 18 18 18 18 18 18 18 18 18 18 18 18 18 18 18 18 18 18 18 18 18 18 18
C1(O)(=NC2(=C(C=C1)C=CC=C2))
InChI=1S/C9H7NO/c11-9-6-5-7-3-1-2-4-8(7)10-9/h1-6H,(H,10,11)
