20
metacyc R-MANDELAMIDE  196.48101656 196.48101656 196.48101656 196.48101656 196.48101656 196.48101656 196.48101656 196.48101656 196.48101656 196.48101656 196.48101656 196.48101656 196.48101656 196.48101656 196.48101656
C         -1.52860        0.12504        0.02415
C         -0.79943        1.29448       -0.17751
C          0.59723        1.25925       -0.17614
C          1.28445        0.05173        0.02976
C          0.53247       -1.11822        0.22506
C         -0.86320       -1.08097        0.22604
C          2.80090        0.03025        0.01362
O          3.29523       -1.04368        0.81751
C          3.36878       -0.10020       -1.41373
N          3.64565        1.06040       -2.08032
O          3.61367       -1.19118       -1.92741
H         -2.61493        0.15246        0.02583
H         -1.31984        2.23569       -0.33371
H          1.14345        2.18600       -0.33294
H          1.02863       -2.07246        0.38986
H         -1.42860       -1.99503        0.38778
H          3.18380        0.95095        0.46875
H          3.43938       -1.78365        0.19428
H          3.67136        1.95899       -1.61949
H          4.09827        0.97264       -2.98149
20 20 20 20 20 20 20 20 20 20 20 20 20 20 20 20 20 20 20 20 20 20 20 20 20 20 20 20 20 20 20 20 20 20 20 20 20 20 20 20 20 20 20 20 20 20 20 20 20 20 20 20 20 20 20
C1(C=CC(=CC=1)C(O)C(N)=O)
InChI=1S/C8H9NO2/c9-8(11)7(10)6-4-2-1-3-5-6/h1-5,7,10H,(H2,9,11)/t7-/m1/s1
