17
metacyc SALICYLAMIDE  91.243994192 91.243994192 91.243994192 91.243994192 91.243994192 91.243994192 91.243994192 91.243994192 91.243994192 91.243994192 91.243994192 91.243994192 91.243994192 91.243994192 91.243994192
C         -1.36908       -0.07278        0.01843
C         -0.75737        1.18485       -0.03872
C          0.64064        1.29383       -0.09109
C          1.33605        2.61064       -0.15809
O          2.56311        2.66514       -0.18964
N          0.60150        3.76172       -0.18849
C          1.40637        0.11436       -0.08034
C          0.79426       -1.13737       -0.02279
C         -0.59452       -1.23112        0.02556
O          2.77692        0.10332       -0.12484
H         -2.45343       -0.14872        0.05767
H         -1.40120        2.05651       -0.03965
H         -0.40397        3.81683       -0.18217
H          1.11778        4.63098       -0.24416
H          1.40429       -2.03698       -0.01617
H         -1.07047       -2.20760        0.06927
H          3.08536        1.03741       -0.15931
17 17 17 17 17 17 17 17 17 17 17 17 17 17 17 17 17 17 17 17 17 17 17 17 17 17 17 17 17 17 17 17 17 17 17 17 17 17 17 17 17 17 17 17 17 17
C1(=CC(C(=O)N)=C(C=C1)O)
InChI=1S/C7H7NO2/c8-7(10)5-3-1-2-4-6(5)9/h1-4,9H,(H2,8,10)
