24
metacyc SPERMIDINE  953.7264824 953.7264824 953.7264824 953.7264824 953.7264824 953.7264824 953.7264824 953.7264824 953.7264824 953.7264824 953.7264824 953.7264824 953.7264824 953.7264824 953.7264824
C          0.93121       -0.03306        0.02949
N          0.45583        0.90455       -0.98354
C          2.45424       -0.07532        0.06203
C          2.94955       -1.06059        1.13052
N          4.40761       -1.09397        1.12732
C          4.93538       -2.02304        2.12079
C          6.46749       -1.95194        2.15998
C          7.04848       -0.57281        2.50571
C          6.57256       -0.05085        3.85646
N          7.27264        1.18807        4.19518
H          0.52725       -1.02615       -0.19387
H          0.53785        0.27332        1.00405
H          2.85119        0.92625        0.27032
H          2.84011       -0.37029       -0.92311
H          2.52444       -2.05101        0.92277
H          2.55813       -0.74618        2.10668
H          4.65458       -3.05700        1.88060
H          4.53755       -1.82873        3.12410
H          6.87160       -2.26152        1.18712
H          6.83050       -2.68436        2.89344
H          6.79984        0.14893        1.71780
H          8.14311       -0.65974        2.50862
H          6.77754       -0.78722        4.64027
H          5.49672        0.14643        3.85300
24 24 24 24 24 24 24 24 24 24 24 24 24 24 24 24 24 24 24 24 24 24 24 24 24 24 24 24 24 24 24 24 24 24 24 24 24 24 24 24 24 24 24 24 24 24 24 24 24 24 24 24 24 24 24 24 24 24 24 24 24 24 24 24 24 24 24
C([N+])CC[N+]CCCC[N+]
InChI=1S/C7H19N3/c8-4-1-2-6-10-7-3-5-9/h10H,1-9H2/p+3
