26
metacyc T-2-NONENAL-CMPD  679.64034096 679.64034096 679.64034096 679.64034096 679.64034096 679.64034096 679.64034096 679.64034096 679.64034096 679.64034096 679.64034096 679.64034096 679.64034096 679.64034096 679.64034096
C          1.02289       -0.00081       -0.05243
C          2.54285        0.01817       -0.07137
C          3.07671        1.07597       -1.03681
C          4.60579        1.09353       -1.05287
C          5.14144        2.14992       -2.02172
C          6.67137        2.16307       -2.03279
C          7.20595        3.18912       -2.99252
C          7.98809        2.87867       -4.03600
C          8.49478        3.93001       -4.94008
O          9.21412        3.65670       -5.89263
H          0.66158       -0.76390        0.64400
H          0.62124       -0.22896       -1.04490
H          0.62273        0.96699        0.26629
H          2.91140       -0.97245       -0.36277
H          2.91291        0.21683        0.94129
H          2.70098        2.06387       -0.74384
H          2.70093        0.87386       -2.04724
H          4.98088        0.10485       -1.34426
H          4.98173        1.29720       -0.04281
H          4.76322        3.13851       -1.73157
H          4.76397        1.94600       -3.03175
H          7.04580        1.16401       -2.28757
H          7.04715        2.39773       -1.02979
H          6.93481        4.22398       -2.79206
H          8.28850        1.86364       -4.26956
H          8.19165        4.96396       -4.70856
26 26 26 26 26 26 26 26 26 26 26 26 26 26 26 26 26 26 26 26 26 26 26 26 26 26 26 26 26 26 26 26 26 26 26 26 26 26 26 26 26 26 26 26 26 26 26 26 26 26 26 26 26 26 26 26 26 26 26 26 26 26 26 26 26 26 26 26 26 26 26 26 26
CCCCCCC=CC=O
InChI=1S/C9H16O/c1-2-3-4-5-6-7-8-9-10/h7-9H,2-6H2,1H3/b8-7-
