15
metacyc TOLUENE  476.13489048 476.13489048 476.13489048 476.13489048 476.13489048 476.13489048 476.13489048 476.13489048 476.13489048 476.13489048 476.13489048 476.13489048 476.13489048 476.13489048 476.13489048
C          0.99817        0.08173        0.13025
C          2.49539        0.10899        0.04686
C          3.19262        1.32221        0.00154
C          4.58599        1.33341       -0.08491
C          5.29321        0.13328       -0.12916
C          4.60785       -1.07930       -0.08735
C          3.21481       -1.09194       -0.00060
H          0.58293        1.08989        0.23001
H          0.67832       -0.49804        1.00212
H          0.57939       -0.36862       -0.77539
H          2.65594        2.26752        0.03323
H          5.11951        2.27967       -0.11861
H          6.37765        0.14320       -0.19731
H          5.15785       -2.01593       -0.12307
H          2.69151       -2.04500        0.02947
15 15 15 15 15 15 15 15 15 15 15 15 15 15 15 15 15 15 15 15 15 15 15 15 15 15 15 15 15 15 15 15 15 15 15 15 15 15 15 15
CC1(C=CC=CC=1)
InChI=1S/C7H8/c1-7-5-3-2-4-6-7/h2-6H,1H3
