19
metacyc TOLUENECISDHDIOL  213.891117536 213.891117536 213.891117536 213.891117536 213.891117536 213.891117536 213.891117536 213.891117536 213.891117536 213.891117536 213.891117536 213.891117536 213.891117536 213.891117536 213.891117536
C          0.88776        0.16298       -0.00482
C          2.39000        0.14510        0.01924
C          3.11004        1.28041        0.00091
C          4.54853        1.27973        0.03311
C          5.25235        0.14084        0.01841
C          4.61322       -1.21683       -0.02913
C          3.04882       -1.21935        0.06142
O          2.63461       -1.84511        1.28183
O          5.05225       -1.82115       -1.24897
H          0.48998        1.18296       -0.03886
H          0.48269       -0.31677        0.89183
H          0.51404       -0.36995       -0.88496
H          2.62241        2.25305       -0.02584
H          5.05402        2.24198        0.05535
H          6.33817        0.17507        0.02871
H          5.02576       -1.82157        0.78659
H          2.64810       -1.83000       -0.75747
H          2.91629       -1.25507        2.00288
H          4.71612       -1.26386       -1.97170
19 19 19 19 19 19 19 19 19 19 19 19 19 19 19 19 19 19 19 19 19 19 19 19 19 19 19 19 19 19 19 19 19 19 19 19 19 19 19 19 19 19 19 19 19 19 19 19 19 19 19 19
CC1(=CC=CC(C(O)1)O)
InChI=1S/C7H10O2/c1-5-3-2-4-6(8)7(5)9/h2-4,6-9H,1H3/t6-,7+/m0/s1
