17
metacyc TRIS  17.453102036 17.453102036 17.453102036 17.453102036 17.453102036 17.453102036 17.453102036 17.453102036 17.453102036 17.453102036 17.453102036 17.453102036 17.453102036 17.453102036 17.453102036
C          1.01259       -0.00076        0.04574
O          0.45730        0.60538        1.21615
C          2.55341        0.01985        0.06532
N          2.99937        1.42037        0.07962
C          3.10492       -0.67002        1.33110
O          2.74279       -2.05284        1.38409
C          3.10334       -0.65801       -1.20586
O          2.68363       -2.01595       -1.33259
H          0.61331        0.52475       -0.82979
H          0.63051       -1.02625        0.00860
H          0.68085        1.55395        1.17143
H          2.76020       -0.18703        2.25254
H          4.20096       -0.63016        1.33847
H          1.85358       -2.09165        1.78840
H          4.19951       -0.64561       -1.21784
H          2.76191       -0.13158       -2.10460
H          2.90594       -2.46420       -0.48736
17 17 17 17 17 17 17 17 17 17 17 17 17 17 17 17 17 17 17 17 17 17 17 17 17 17 17 17 17 17 17 17 17 17 17 17 17 17 17 17 17 17 17 17 17 17
C(O)C([N+])(CO)CO
InChI=1S/C4H11NO3/c5-4(1-6,2-7)3-8/h6-8H,1-3,5H2/p+1
