21
metacyc TYR  102.015635248 102.015635248 102.015635248 102.015635248 102.015635248 102.015635248 102.015635248 102.015635248 102.015635248 102.015635248 102.015635248 102.015635248 102.015635248 102.015635248 102.015635248
C          1.37606       -2.92452       -1.34901
C          0.41664       -1.80672       -1.81906
C         -0.55766       -1.42185       -0.70236
C         -1.60997       -0.41435       -1.12524
C         -2.82755       -0.83443       -1.67778
C         -3.78299        0.10456       -2.08135
C         -3.51343        1.46190       -1.93585
O         -4.41257        2.40898       -2.33462
C         -2.31571        1.89603       -1.38601
C         -1.36460        0.95855       -0.98280
N          1.26063       -0.67239       -2.21963
O          1.62736       -2.97536       -0.10898
O          1.77475       -3.70756       -2.26354
H         -0.13769       -2.16134       -2.69623
H         -0.02329       -1.02327        0.17092
H         -1.06966       -2.32278       -0.33535
H         -3.03324       -1.89540       -1.79578
H         -4.71880       -0.24514       -2.50221
H         -5.13339        1.95609       -2.80017
H         -2.11226        2.95624       -1.28015
H         -0.41862        1.30004       -0.56812
21 21 21 21 21 21 21 21 21 21 21 21 21 21 21 21 21 21 21 21 21 21 21 21 21 21 21 21 21 21 21 21 21 21 21 21 21 21 21 21 21 21 21 21 21 21 21 21 21 21 21 21 21 21 21 21 21 21
C(C(CC1(C=CC(O)=CC=1))[N+])(=O)[O-]
InChI=1S/C9H11NO3/c10-8(9(12)13)5-6-1-3-7(11)4-2-6/h1-4,8,11H,5,10H2,(H,12,13)/t8-/m0/s1
