19
metacyc VANILLIN  73.25750956 73.25750956 73.25750956 73.25750956 73.25750956 73.25750956 73.25750956 73.25750956 73.25750956 73.25750956 73.25750956 73.25750956 73.25750956 73.25750956 73.25750956
C          1.13013        0.03820        0.44374
O          2.47006        0.09865       -0.04053
C          2.95200       -1.07663       -0.55696
C          3.94456       -0.94764       -1.53484
C          4.51226       -2.05921       -2.14825
C          4.09515       -3.33552       -1.77071
C          3.12226       -3.47612       -0.77513
C          2.68981       -4.82815       -0.36958
H          3.16586       -5.67481       -0.88985
O          1.84698       -5.00736        0.50048
C          2.55231       -2.35202       -0.16176
O          4.37237        0.29243       -1.92272
H          0.81801        1.05763        0.68872
H          1.06248       -0.55617        1.36009
H          0.45164       -0.34503       -0.32660
H          5.27139       -1.92676       -2.91457
H          4.53791       -4.20355       -2.25262
H          1.81784       -2.50042        0.62280
H          3.87618        0.92084       -1.36211
19 19 19 19 19 19 19 19 19 19 19 19 19 19 19 19 19 19 19 19 19 19 19 19 19 19 19 19 19 19 19 19 19 19 19 19 19 19 19 19 19 19 19 19 19 19 19 19 19 19 19 19
COC1(C(=CC=C([CH]=O)C=1)O)
InChI=1S/C8H8O3/c1-11-8-4-6(5-9)2-3-7(8)10/h2-5,10H,1H3
